version 3
run Ping2-0-20230902-16:37:38-23492
attr configname Ping2
attr datetime 20230902-16:37:38
attr datetimef 20230902-163738
attr experiment Ping2
attr inifile omnetpp.ini
attr iterationvars $0=10
attr iterationvarsd 10
attr iterationvarsf 10-
attr measurement $0=10
attr network WLAN
attr processid 23492
attr repetition 0
attr replication #0
attr resultdir results
attr runnumber 0
attr seedset 0
config image-path ../../samples/inet4.5/images
config description "n hosts"
config *.numHosts 10
config network WLAN
config **.constraintAreaMinX 0m
config **.constraintAreaMinY 0m
config **.constraintAreaMinZ 0m
config **.constraintAreaMaxX 500m
config **.constraintAreaMaxY 300m
config **.constraintAreaMaxZ 0m
config **.ap.wlan[*].address "\"10:00:00:00:00:00\""
config **.host[*].**.mgmt.accessPointAddress "\"10:00:00:00:00:00\""
config **.mgmt.frameCapacity 10
config **.numApps 1
config **.app[0].typename PingApp
config *.host[0].app[0].destAddr "\"\""
config *.host[*].app[0].destAddr "\"host[0]\""
config *.host[*].app[0].sendInterval 10ms
config **.wlan[*].mac.retryLimit 7
config **.bandName "\"5 GHz (20 MHz)\""
config **.opMode "\"ac\""
config **.wlan[*].radio.antenna.numAntennas 8
config **.bitrate 693.3Mbps
config **.wlan[*].radio.transmitter.power 100mW
config **.wlan[*].radio.transmitter.headerBitLength 100b
config **.carrierFrequency 5GHz
config **.wlan[*].radio.receiver.sensitivity -85dBm
config **.wlan[*].radio.receiver.snirThreshold 4dB

par WLAN.host[0].radioIn[0].channel typename "\"ned.IdealChannel\""
par WLAN.host[0].mobility typename "\"inet.mobility.static.StationaryMobility\""
par WLAN.host[0].mobility subjectModule "\"^\""
par WLAN.host[0].mobility coordinateSystemModule "\"\""
par WLAN.host[0].mobility displayStringTextFormat "\"p: %p\\nv: %v\""
attr mutable ""
par WLAN.host[0].mobility updateDisplayString true
par WLAN.host[0].mobility constraintAreaMinX 0m
attr unit m
par WLAN.host[0].mobility constraintAreaMinY 0m
attr unit m
par WLAN.host[0].mobility constraintAreaMinZ 0m
attr unit m
par WLAN.host[0].mobility constraintAreaMaxX 500m
attr unit m
par WLAN.host[0].mobility constraintAreaMaxY 300m
attr unit m
par WLAN.host[0].mobility constraintAreaMaxZ 0m
attr unit m
par WLAN.host[0].mobility initialX 274.407m
attr unit m
par WLAN.host[0].mobility initialY 177.853m
attr unit m
par WLAN.host[0].mobility initialZ 0m
attr unit m
par WLAN.host[0].mobility initialLatitude "nan deg"
attr unit deg
par WLAN.host[0].mobility initialLongitude "nan deg"
attr unit deg
par WLAN.host[0].mobility initialAltitude 0m
attr unit m
par WLAN.host[0].mobility initialHeading 0deg
attr unit deg
par WLAN.host[0].mobility initialElevation 0deg
attr unit deg
par WLAN.host[0].mobility initialBank 0deg
attr unit deg
par WLAN.host[0].mobility initFromDisplayString true
par WLAN.host[0].mobility updateFromDisplayString true
par WLAN.host[0].interfaceTable typename "\"inet.networklayer.common.InterfaceTable\""
par WLAN.host[0].interfaceTable displayAddresses false
par WLAN.host[0].cb typename "\"inet.common.MessageDispatcher\""
par WLAN.host[0].cb displayStringTextFormat "\"processed %p pk (%l)\""
par WLAN.host[0].cb forwardServiceRegistration true
par WLAN.host[0].cb forwardProtocolRegistration true
par WLAN.host[0].bl typename "\"inet.common.MessageDispatcher\""
par WLAN.host[0].bl displayStringTextFormat "\"processed %p pk (%l)\""
par WLAN.host[0].bl forwardServiceRegistration true
par WLAN.host[0].bl forwardProtocolRegistration true
par WLAN.host[0].li typename "\"inet.common.MessageDispatcher\""
par WLAN.host[0].li displayStringTextFormat "\"processed %p pk (%l)\""
par WLAN.host[0].li forwardServiceRegistration true
par WLAN.host[0].li forwardProtocolRegistration true
par WLAN.host[0].lo[0].upperLayerIn.channel typename "\"ned.IdealChannel\""
par WLAN.host[0].lo[0].lo.upperLayerOut.channel typename "\"ned.IdealChannel\""
par WLAN.host[0].lo[0].lo typename "\"inet.linklayer.loopback.Loopback\""
par WLAN.host[0].lo[0].lo interfaceTableModule "\"WLAN.host[0].interfaceTable\""
par WLAN.host[0].lo[0].lo mtu 4470B
attr unit B
scalar WLAN.host[0].lo[0].lo rcvdPkFromHl:count 0
attr interpolationmode none
attr recordingmode count
attr source packetReceivedFromUpper
attr title "packets received from higher layer, count"
scalar WLAN.host[0].lo[0].lo rcvdPkFromHl:sum(packetBytes) 0
attr interpolationmode none
attr recordingmode sum(packetBytes)
attr source packetReceivedFromUpper
attr title "packets received from higher layer, sum(packetBytes)"
scalar WLAN.host[0].lo[0].lo passedUpPk:count 0
attr interpolationmode none
attr recordingmode count
attr source packetSentToUpper
attr title "packets passed to higher layer, count"
scalar WLAN.host[0].lo[0].lo passedUpPk:sum(packetBytes) 0
attr interpolationmode none
attr recordingmode sum(packetBytes)
attr source packetSentToUpper
attr title "packets passed to higher layer, sum(packetBytes)"
par WLAN.host[0].lo[0] typename "\"inet.linklayer.loopback.LoopbackInterface\""
par WLAN.host[0].lo[0] displayStringTextFormat "\"%a (%i)\\n%m\""
par WLAN.host[0].lo[0] recordPcap false
par WLAN.host[0].lo[0] numPcapRecorders 0
par WLAN.host[0].lo[0] interfaceTableModule "\"WLAN.host[0].interfaceTable\""
scalar WLAN.host[0].lo[0] packetDropInterfaceDown:count 0
attr interpolationmode none
attr recordingmode count
attr source packetDropReasonIsInterfaceDown(packetDropped)
attr title "packet drops: interface down, count"
scalar WLAN.host[0].lo[0] packetDropInterfaceDown:sum(packetBytes) 0
attr interpolationmode none
attr recordingmode sum(packetBytes)
attr source packetDropReasonIsInterfaceDown(packetDropped)
attr title "packet drops: interface down, sum(packetBytes)"
scalar WLAN.host[0].lo[0] packetDropNoCarrier:count 0
attr interpolationmode none
attr recordingmode count
attr source packetDropReasonIsNoCarrier(packetDropped)
attr title "packet drops: no carrier, count"
scalar WLAN.host[0].lo[0] packetDropNoCarrier:sum(packetBytes) 0
attr interpolationmode none
attr recordingmode sum(packetBytes)
attr source packetDropReasonIsNoCarrier(packetDropped)
attr title "packet drops: no carrier, sum(packetBytes)"
par WLAN.host[0].wlan[0].radioIn.channel typename "\"ned.IdealChannel\""
par WLAN.host[0].wlan[0].llc.upperLayerOut.channel typename "\"ned.IdealChannel\""
par WLAN.host[0].wlan[0].upperLayerIn.channel typename "\"ned.IdealChannel\""
par WLAN.host[0].wlan[0].mib typename "\"inet.linklayer.ieee80211.mib.Ieee80211Mib\""
par WLAN.host[0].wlan[0].llc typename "\"inet.linklayer.ieee80211.llc.Ieee80211LlcLpd\""
par WLAN.host[0].wlan[0].llc registerProtocol false
par WLAN.host[0].wlan[0].mgmt typename "\"inet.linklayer.ieee80211.mgmt.Ieee80211MgmtStaSimplified\""
par WLAN.host[0].wlan[0].mgmt accessPointAddress "\"10:00:00:00:00:00\""
par WLAN.host[0].wlan[0].mgmt interfaceTableModule "\"WLAN.host[0].interfaceTable\""
par WLAN.host[0].wlan[0].mgmt mibModule "\"WLAN.host[0].wlan[0].mib\""
par WLAN.host[0].wlan[0].mgmt macModule "\"WLAN.host[0].wlan[0].mac\""
par WLAN.host[0].wlan[0].mac.dcf.channelAccess.pendingQueue typename "\"inet.linklayer.ieee80211.mac.queue.PendingQueue\""
par WLAN.host[0].wlan[0].mac.dcf.channelAccess.pendingQueue displayStringTextFormat "\"contains %p pk (%l) pushed %u\\npulled %o removed %r dropped %d\""
par WLAN.host[0].wlan[0].mac.dcf.channelAccess.pendingQueue packetCapacity 100
par WLAN.host[0].wlan[0].mac.dcf.channelAccess.pendingQueue dataCapacity -1b
attr unit b
par WLAN.host[0].wlan[0].mac.dcf.channelAccess.pendingQueue dropperClass "\"inet::queueing::PacketAtCollectionEndDropper\""
par WLAN.host[0].wlan[0].mac.dcf.channelAccess.pendingQueue comparatorClass "\"inet::ieee80211::MgmtOverDataComparator\""
par WLAN.host[0].wlan[0].mac.dcf.channelAccess.pendingQueue bufferModule "\"\""
scalar WLAN.host[0].wlan[0].mac.dcf.channelAccess.pendingQueue queueLength:last 2
attr autoWarmupFilter false
attr interpolationmode sample-hold
attr recordingmode last
attr source "warmup(atomic(constant0(packetPushEnded) + count(packetPushStarted) - count(packetPulled) - count(packetRemoved) - count(packetDropped)))"
attr title "queue length, last"
attr unit pk
scalar WLAN.host[0].wlan[0].mac.dcf.channelAccess.pendingQueue queueLength:max 5
attr autoWarmupFilter false
attr interpolationmode sample-hold
attr recordingmode max
attr source "warmup(atomic(constant0(packetPushEnded) + count(packetPushStarted) - count(packetPulled) - count(packetRemoved) - count(packetDropped)))"
attr title "queue length, max"
attr unit pk
scalar WLAN.host[0].wlan[0].mac.dcf.channelAccess.pendingQueue queueLength:timeavg 0.35429533762018
attr autoWarmupFilter false
attr interpolationmode sample-hold
attr recordingmode timeavg
attr source "warmup(atomic(constant0(packetPushEnded) + count(packetPushStarted) - count(packetPulled) - count(packetRemoved) - count(packetDropped)))"
attr title "queue length, timeavg"
attr unit pk
scalar WLAN.host[0].wlan[0].mac.dcf.channelAccess.pendingQueue queueBitLength:last 1920
attr autoWarmupFilter false
attr interpolationmode sample-hold
attr recordingmode last
attr source "warmup(atomic(constant0(packetPushEnded) + sum(packetLength(packetPushStarted)) - sum(packetLength(packetPulled)) - sum(packetLength(packetRemoved)) - sum(packetLength(packetDropped))))"
attr title "queue bit length, last"
attr unit b
scalar WLAN.host[0].wlan[0].mac.dcf.channelAccess.pendingQueue queueBitLength:max 4800
attr autoWarmupFilter false
attr interpolationmode sample-hold
attr recordingmode max
attr source "warmup(atomic(constant0(packetPushEnded) + sum(packetLength(packetPushStarted)) - sum(packetLength(packetPulled)) - sum(packetLength(packetRemoved)) - sum(packetLength(packetDropped))))"
attr title "queue bit length, max"
attr unit b
scalar WLAN.host[0].wlan[0].mac.dcf.channelAccess.pendingQueue queueBitLength:timeavg 328.16579054023
attr autoWarmupFilter false
attr interpolationmode sample-hold
attr recordingmode timeavg
attr source "warmup(atomic(constant0(packetPushEnded) + sum(packetLength(packetPushStarted)) - sum(packetLength(packetPulled)) - sum(packetLength(packetRemoved)) - sum(packetLength(packetDropped))))"
attr title "queue bit length, timeavg"
attr unit b
statistic WLAN.host[0].wlan[0].mac.dcf.channelAccess.pendingQueue queueingTime:histogram
field count 113
field mean 0.00036581360193805
field stddev 0.00029870273256407
field min 7e-05
field max 0.001554351058
field sum 0.041336937019
field sqrsum 2.5114625937426e-05
attr interpolationmode none
attr recordingmode histogram
attr source queueingTime(packetPulled)
attr title "queueing times"
attr unit s
bin	-inf	0
bin	0	0
bin	2e-05	0
bin	4e-05	0
bin	6e-05	1
bin	8e-05	5
bin	0.0001	7
bin	0.00012	11
bin	0.00014	6
bin	0.00016	10
bin	0.00018	4
bin	0.0002	4
bin	0.00022	3
bin	0.00024	0
bin	0.00026	1
bin	0.00028	6
bin	0.0003	4
bin	0.00032	7
bin	0.00034	6
bin	0.00036	4
bin	0.00038	2
bin	0.0004	0
bin	0.00042	1
bin	0.00044	1
bin	0.00046	1
bin	0.00048	1
bin	0.0005	2
bin	0.00052	3
bin	0.00054	1
bin	0.00056	4
bin	0.00058	0
bin	0.0006	1
bin	0.00062	0
bin	0.00064	2
bin	0.00066	0
bin	0.00068	2
bin	0.0007	1
bin	0.00072	1
bin	0.00074	1
bin	0.00076	1
bin	0.00078	0
bin	0.0008	1
bin	0.00082	0
bin	0.00084	0
bin	0.00086	0
bin	0.00088	1
bin	0.0009	1
bin	0.00092	0
bin	0.00094	1
bin	0.00096	0
bin	0.00098	0
bin	0.001	0
bin	0.00102	0
bin	0.00104	0
bin	0.00106	0
bin	0.00108	0
bin	0.0011	1
bin	0.00112	0
bin	0.00114	0
bin	0.00116	0
bin	0.00118	0
bin	0.0012	0
bin	0.00122	0
bin	0.00124	0
bin	0.00126	1
bin	0.00128	1
bin	0.0013	0
bin	0.00132	0
bin	0.00134	0
bin	0.00136	0
bin	0.00138	0
bin	0.0014	0
bin	0.00142	0
bin	0.00144	0
bin	0.00146	0
bin	0.00148	0
bin	0.0015	1
bin	0.00152	0
bin	0.00154	1
bin	0.00156	0
bin	0.00158	0
bin	0.0016	0
bin	0.00162	0
bin	0.00164	0
bin	0.00166	0
bin	0.00168	0
bin	0.0017	0
bin	0.00172	0
bin	0.00174	0
bin	0.00176	0
bin	0.00178	0
bin	0.0018	0
bin	0.00182	0
bin	0.00184	0
bin	0.00186	0
bin	0.00188	0
bin	0.0019	0
bin	0.00192	0
bin	0.00194	0
scalar WLAN.host[0].wlan[0].mac.dcf.channelAccess.pendingQueue outgoingPackets:count 113
attr recordingmode count
attr source packetPulled
attr title "outgoing packets, count"
attr unit pk
scalar WLAN.host[0].wlan[0].mac.dcf.channelAccess.pendingQueue outgoingPacketLengths:sum 104448
attr interpolationmode none
attr recordingmode sum
attr source packetLength(packetPulled)
attr title "outgoing packet lengths, sum"
attr unit b
statistic WLAN.host[0].wlan[0].mac.dcf.channelAccess.pendingQueue outgoingPacketLengths:histogram
field count 113
field mean 924.3185840708
field stddev 121.83377621394
field min 512
field max 960
field sum 104448
field sqrsum 98205696
attr interpolationmode none
attr recordingmode histogram
attr source packetLength(packetPulled)
attr title "outgoing packet lengths"
attr unit b
bin	-inf	0
bin	400	0
bin	410	0
bin	420	0
bin	430	0
bin	440	0
bin	450	0
bin	460	0
bin	470	0
bin	480	0
bin	490	0
bin	500	0
bin	510	9
bin	520	0
bin	530	0
bin	540	0
bin	550	0
bin	560	0
bin	570	0
bin	580	0
bin	590	0
bin	600	0
bin	610	0
bin	620	0
bin	630	0
bin	640	0
bin	650	0
bin	660	0
bin	670	0
bin	680	0
bin	690	0
bin	700	0
bin	710	0
bin	720	0
bin	730	0
bin	740	0
bin	750	0
bin	760	0
bin	770	0
bin	780	0
bin	790	0
bin	800	0
bin	810	0
bin	820	0
bin	830	0
bin	840	0
bin	850	0
bin	860	0
bin	870	0
bin	880	0
bin	890	0
bin	900	0
bin	910	0
bin	920	0
bin	930	0
bin	940	0
bin	950	0
bin	960	104
bin	970	0
bin	980	0
bin	990	0
bin	1000	0
bin	1010	0
bin	1020	0
bin	1030	0
bin	1040	0
bin	1050	0
bin	1060	0
bin	1070	0
bin	1080	0
statistic WLAN.host[0].wlan[0].mac.dcf.channelAccess.pendingQueue flowQueueingTime:histogram
field count 0
field mean nan
field stddev nan
field min nan
field max nan
field sum 0
field sqrsum 0
attr interpolationmode none
attr recordingmode histogram
attr source queueingTime(demuxFlow(packetPulled))
attr title "flow queueing times"
attr unit s
bin	-inf	0
bin	0	0
bin	1	0
scalar WLAN.host[0].wlan[0].mac.dcf.channelAccess.pendingQueue incomingPackets:count 115
attr recordingmode count
attr source packetPushStarted
attr title "incoming packets, count"
attr unit pk
scalar WLAN.host[0].wlan[0].mac.dcf.channelAccess.pendingQueue incomingPacketLengths:sum 106368
attr interpolationmode none
attr recordingmode sum
attr source packetLength(packetPushStarted)
attr title "incoming packet lengths, sum"
attr unit b
statistic WLAN.host[0].wlan[0].mac.dcf.channelAccess.pendingQueue incomingPacketLengths:histogram
field count 115
field mean 924.93913043478
field stddev 120.85116894066
field min 512
field max 960
field sum 106368
field sqrsum 100048896
attr interpolationmode none
attr recordingmode histogram
attr source packetLength(packetPushStarted)
attr title "incoming packet lengths"
attr unit b
bin	-inf	0
bin	400	0
bin	410	0
bin	420	0
bin	430	0
bin	440	0
bin	450	0
bin	460	0
bin	470	0
bin	480	0
bin	490	0
bin	500	0
bin	510	9
bin	520	0
bin	530	0
bin	540	0
bin	550	0
bin	560	0
bin	570	0
bin	580	0
bin	590	0
bin	600	0
bin	610	0
bin	620	0
bin	630	0
bin	640	0
bin	650	0
bin	660	0
bin	670	0
bin	680	0
bin	690	0
bin	700	0
bin	710	0
bin	720	0
bin	730	0
bin	740	0
bin	750	0
bin	760	0
bin	770	0
bin	780	0
bin	790	0
bin	800	0
bin	810	0
bin	820	0
bin	830	0
bin	840	0
bin	850	0
bin	860	0
bin	870	0
bin	880	0
bin	890	0
bin	900	0
bin	910	0
bin	920	0
bin	930	0
bin	940	0
bin	950	0
bin	960	106
bin	970	0
bin	980	0
bin	990	0
bin	1000	0
bin	1010	0
bin	1020	0
bin	1030	0
bin	1040	0
bin	1050	0
bin	1060	0
bin	1070	0
bin	1080	0
scalar WLAN.host[0].wlan[0].mac.dcf.channelAccess.pendingQueue droppedPacketsQueueOverflow:count 0
attr interpolationmode none
attr recordingmode count
attr source packetDropReasonIsQueueOverflow(packetDropped)
attr title "dropped packets: queue overflow, count"
attr unit pk
scalar WLAN.host[0].wlan[0].mac.dcf.channelAccess.pendingQueue droppedPacketLengthsQueueOverflow:sum 0
attr interpolationmode none
attr recordingmode sum
attr source packetLength(packetDropReasonIsQueueOverflow(packetDropped))
attr title "dropped packet lengths: queue overflow, sum"
attr unit b
par WLAN.host[0].wlan[0].mac.dcf.channelAccess.inProgressFrames typename "\"inet.linklayer.ieee80211.mac.queue.InProgressFrames\""
par WLAN.host[0].wlan[0].mac.dcf.channelAccess.inProgressFrames pendingQueueModule "\"^.pendingQueue\""
par WLAN.host[0].wlan[0].mac.dcf.channelAccess.inProgressFrames originatorMacDataServiceModule "\"^.^.originatorMacDataService\""
par WLAN.host[0].wlan[0].mac.dcf.channelAccess.inProgressFrames ackHandlerModule "\"^.^.ackHandler\""
statistic WLAN.host[0].wlan[0].mac.dcf.channelAccess.inProgressFrames queueingTime:histogram
field count 113
field mean 0.00028353391757522
field stddev 0.00024262868884062
field min 0.000132907294
field max 0.001171721882
field sum 0.032039332686
field sqrsum 1.5677529745591e-05
attr interpolationmode none
attr recordingmode histogram
attr source queueingTime(packetDequeued)
attr title "queueing times"
bin	-inf	0
bin	0	0
bin	2e-05	0
bin	4e-05	0
bin	6e-05	0
bin	8e-05	0
bin	0.0001	0
bin	0.00012	74
bin	0.00014	0
bin	0.00016	0
bin	0.00018	0
bin	0.0002	0
bin	0.00022	0
bin	0.00024	0
bin	0.00026	0
bin	0.00028	3
bin	0.0003	2
bin	0.00032	2
bin	0.00034	2
bin	0.00036	0
bin	0.00038	2
bin	0.0004	0
bin	0.00042	0
bin	0.00044	1
bin	0.00046	0
bin	0.00048	3
bin	0.0005	3
bin	0.00052	1
bin	0.00054	3
bin	0.00056	2
bin	0.00058	2
bin	0.0006	0
bin	0.00062	0
bin	0.00064	0
bin	0.00066	2
bin	0.00068	2
bin	0.0007	0
bin	0.00072	1
bin	0.00074	2
bin	0.00076	1
bin	0.00078	0
bin	0.0008	0
bin	0.00082	0
bin	0.00084	0
bin	0.00086	0
bin	0.00088	2
bin	0.0009	1
bin	0.00092	0
bin	0.00094	0
bin	0.00096	0
bin	0.00098	0
bin	0.001	1
bin	0.00102	0
bin	0.00104	0
bin	0.00106	0
bin	0.00108	0
bin	0.0011	0
bin	0.00112	0
bin	0.00114	0
bin	0.00116	1
bin	0.00118	0
bin	0.0012	0
bin	0.00122	0
bin	0.00124	0
bin	0.00126	0
bin	0.00128	0
bin	0.0013	0
bin	0.00132	0
bin	0.00134	0
bin	0.00136	0
bin	0.00138	0
bin	0.0014	0
bin	0.00142	0
bin	0.00144	0
scalar WLAN.host[0].wlan[0].mac.dcf.channelAccess.inProgressFrames queueLength:max 2
attr autoWarmupFilter false
attr interpolationmode sample-hold
attr recordingmode max
attr source "warmup(count(packetEnqueued) - count(packetDequeued))"
attr title "queue length, max"
scalar WLAN.host[0].wlan[0].mac.dcf.channelAccess.inProgressFrames queueLength:timeavg 0.2686274486586
attr autoWarmupFilter false
attr interpolationmode sample-hold
attr recordingmode timeavg
attr source "warmup(count(packetEnqueued) - count(packetDequeued))"
attr title "queue length, timeavg"
par WLAN.host[0].wlan[0].mac.dcf.channelAccess.contention typename "\"inet.linklayer.ieee80211.mac.contention.Contention\""
par WLAN.host[0].wlan[0].mac.dcf.channelAccess.contention initialChannelBusy true
par WLAN.host[0].wlan[0].mac.dcf.channelAccess.contention backoffOptimization true
scalar WLAN.host[0].wlan[0].mac.dcf.channelAccess.contention stateChanged:count 3636
attr enum IDLE,DEFER,IFS_AND_BACKOFF
attr interpolationmode none
attr recordingmode count
attr title "contention state changed, count"
attr type enum
scalar WLAN.host[0].wlan[0].mac.dcf.channelAccess.contention channelAccessGranted:count 115
attr recordingmode count
attr title "channel access granted, count"
par WLAN.host[0].wlan[0].mac.dcf.channelAccess typename "\"inet.linklayer.ieee80211.mac.channelaccess.Dcaf\""
par WLAN.host[0].wlan[0].mac.dcf.channelAccess difsn -1
par WLAN.host[0].wlan[0].mac.dcf.channelAccess cwMin -1
par WLAN.host[0].wlan[0].mac.dcf.channelAccess cwMax -1
par WLAN.host[0].wlan[0].mac.dcf.channelAccess rxModule "\"^.^.rx\""
scalar WLAN.host[0].wlan[0].mac.dcf.channelAccess channelOwnershipChanged:count 230
attr interpolationmode sample-hold
attr recordingmode count
attr title "channel ownership, count"
par WLAN.host[0].wlan[0].mac.dcf.originatorMacDataService.fragmentationPolicy typename "\"inet.linklayer.ieee80211.mac.fragmentation.BasicFragmentationPolicy\""
par WLAN.host[0].wlan[0].mac.dcf.originatorMacDataService.fragmentationPolicy fragmentationThreshold 1500B
attr unit B
par WLAN.host[0].wlan[0].mac.dcf.originatorMacDataService typename "\"inet.linklayer.ieee80211.mac.originator.OriginatorMacDataService\""
scalar WLAN.host[0].wlan[0].mac.dcf.originatorMacDataService packetAggregated:count 0
attr recordingmode count
attr title "packets aggregated, count"
scalar WLAN.host[0].wlan[0].mac.dcf.originatorMacDataService packetFragmented:count 0
attr recordingmode count
attr title "packets fragmented, count"
par WLAN.host[0].wlan[0].mac.dcf.recipientMacDataService typename "\"inet.linklayer.ieee80211.mac.recipient.RecipientMacDataService\""
scalar WLAN.host[0].wlan[0].mac.dcf.recipientMacDataService packetDropDuplicateDetected:count 0
attr interpolationmode none
attr recordingmode count
attr source packetDropReasonIsDuplicateDetected(packetDropped)
attr title "packet drops: duplicate detected, count"
scalar WLAN.host[0].wlan[0].mac.dcf.recipientMacDataService packetDropDuplicateDetected:sum(packetBytes) 0
attr interpolationmode none
attr recordingmode sum(packetBytes)
attr source packetDropReasonIsDuplicateDetected(packetDropped)
attr title "packet drops: duplicate detected, sum(packetBytes)"
scalar WLAN.host[0].wlan[0].mac.dcf.recipientMacDataService packetDeaggregated:count 0
attr recordingmode count
attr title "packets deaggregated, count"
scalar WLAN.host[0].wlan[0].mac.dcf.recipientMacDataService packetDefragmented:count 115
attr recordingmode count
attr title "packets defragmented, count"
par WLAN.host[0].wlan[0].mac.dcf.rateSelection typename "\"inet.linklayer.ieee80211.mac.rateselection.RateSelection\""
par WLAN.host[0].wlan[0].mac.dcf.rateSelection rateControlModule "\"^.rateControl\""
par WLAN.host[0].wlan[0].mac.dcf.rateSelection multicastFrameBitrate -1bps
attr unit bps
par WLAN.host[0].wlan[0].mac.dcf.rateSelection responseAckFrameBitrate -1bps
attr unit bps
par WLAN.host[0].wlan[0].mac.dcf.rateSelection responseCtsFrameBitrate -1bps
attr unit bps
par WLAN.host[0].wlan[0].mac.dcf.rateSelection dataFrameBitrate 6.933e+08bps
attr unit bps
par WLAN.host[0].wlan[0].mac.dcf.rateSelection dataFrameBandwidth "nan Hz"
attr unit Hz
par WLAN.host[0].wlan[0].mac.dcf.rateSelection dataFrameNumSpatialStreams -1
par WLAN.host[0].wlan[0].mac.dcf.rateSelection mgmtFrameBitrate -1bps
attr unit bps
par WLAN.host[0].wlan[0].mac.dcf.rateSelection controlFrameBitrate -1bps
attr unit bps
par WLAN.host[0].wlan[0].mac.dcf.recoveryProcedure typename "\"inet.linklayer.ieee80211.mac.originator.NonQosRecoveryProcedure\""
par WLAN.host[0].wlan[0].mac.dcf.recoveryProcedure cwCalculatorModule "\"^.channelAccess\""
par WLAN.host[0].wlan[0].mac.dcf.recoveryProcedure rtsPolicyModule "\"^.rtsPolicy\""
par WLAN.host[0].wlan[0].mac.dcf.recoveryProcedure shortRetryLimit 7
par WLAN.host[0].wlan[0].mac.dcf.recoveryProcedure longRetryLimit 4
scalar WLAN.host[0].wlan[0].mac.dcf.recoveryProcedure retryLimitReached:count 0
attr recordingmode count
attr title "retry limit reached, count"
par WLAN.host[0].wlan[0].mac.dcf.originatorProtectionMechanism typename "\"inet.linklayer.ieee80211.mac.protectionmechanism.OriginatorProtectionMechanism\""
par WLAN.host[0].wlan[0].mac.dcf.originatorProtectionMechanism rateSelectionModule "\"^.rateSelection\""
par WLAN.host[0].wlan[0].mac.dcf.ackHandler typename "\"inet.linklayer.ieee80211.mac.originator.AckHandler\""
par WLAN.host[0].wlan[0].mac.dcf.originatorAckPolicy typename "\"inet.linklayer.ieee80211.mac.originator.OriginatorAckPolicy\""
par WLAN.host[0].wlan[0].mac.dcf.originatorAckPolicy rateSelectionModule "\"^.rateSelection\""
par WLAN.host[0].wlan[0].mac.dcf.originatorAckPolicy ackTimeout -1s
attr unit s
par WLAN.host[0].wlan[0].mac.dcf.recipientAckPolicy typename "\"inet.linklayer.ieee80211.mac.recipient.RecipientAckPolicy\""
par WLAN.host[0].wlan[0].mac.dcf.recipientAckPolicy rateSelectionModule "\"^.rateSelection\""
par WLAN.host[0].wlan[0].mac.dcf.rtsPolicy typename "\"inet.linklayer.ieee80211.mac.originator.RtsPolicy\""
par WLAN.host[0].wlan[0].mac.dcf.rtsPolicy rateSelectionModule "\"^.rateSelection\""
par WLAN.host[0].wlan[0].mac.dcf.rtsPolicy ctsTimeout -1s
attr unit s
par WLAN.host[0].wlan[0].mac.dcf.rtsPolicy rtsThreshold 2346B
attr unit B
par WLAN.host[0].wlan[0].mac.dcf.ctsPolicy typename "\"inet.linklayer.ieee80211.mac.recipient.CtsPolicy\""
par WLAN.host[0].wlan[0].mac.dcf.ctsPolicy rxModule "\"^.^.rx\""
par WLAN.host[0].wlan[0].mac.dcf.ctsPolicy rateSelectionModule "\"^.rateSelection\""
par WLAN.host[0].wlan[0].mac.dcf typename "\"inet.linklayer.ieee80211.mac.coordinationfunction.Dcf\""
par WLAN.host[0].wlan[0].mac.dcf rxModule "\"^.rx\""
par WLAN.host[0].wlan[0].mac.dcf txModule "\"^.tx\""
scalar WLAN.host[0].wlan[0].mac.dcf packetReceivedFromPeer:count 228
attr interpolationmode none
attr recordingmode count
attr title "packets received, count"
scalar WLAN.host[0].wlan[0].mac.dcf packetReceivedFromPeer:sum(packetBytes) 14878
attr interpolationmode none
attr recordingmode sum(packetBytes)
attr title "packets received, sum(packetBytes)"
scalar WLAN.host[0].wlan[0].mac.dcf packetReceivedFromPeerUnicast:count 219
attr interpolationmode none
attr recordingmode count
attr source ieee80211Unicast(packetReceivedFromPeer)
attr title "packets received: unicast, count"
scalar WLAN.host[0].wlan[0].mac.dcf packetReceivedFromPeerUnicast:sum(packetBytes) 14302
attr interpolationmode none
attr recordingmode sum(packetBytes)
attr source ieee80211Unicast(packetReceivedFromPeer)
attr title "packets received: unicast, sum(packetBytes)"
scalar WLAN.host[0].wlan[0].mac.dcf packetReceivedFromPeerMulticast:count 9
attr interpolationmode none
attr recordingmode count
attr source ieee80211Multicast(packetReceivedFromPeer)
attr title "packets received: multicast, count"
scalar WLAN.host[0].wlan[0].mac.dcf packetReceivedFromPeerMulticast:sum(packetBytes) 576
attr interpolationmode none
attr recordingmode sum(packetBytes)
attr source ieee80211Multicast(packetReceivedFromPeer)
attr title "packets received: multicast, sum(packetBytes)"
scalar WLAN.host[0].wlan[0].mac.dcf packetReceivedFromPeerBroadcast:count 9
attr interpolationmode none
attr recordingmode count
attr source ieee80211Broadcast(packetReceivedFromPeer)
attr title "packets received: broadcast, count"
scalar WLAN.host[0].wlan[0].mac.dcf packetReceivedFromPeerBroadcast:sum(packetBytes) 576
attr interpolationmode none
attr recordingmode sum(packetBytes)
attr source ieee80211Broadcast(packetReceivedFromPeer)
attr title "packets received: broadcast, sum(packetBytes)"
scalar WLAN.host[0].wlan[0].mac.dcf packetReceivedFromPeerWithRetry:count 2
attr interpolationmode none
attr recordingmode count
attr source ieee80211Retry(packetReceivedFromPeer)
attr title "packets received: with retry, count"
scalar WLAN.host[0].wlan[0].mac.dcf packetReceivedFromPeerWithRetry:sum(packetBytes) 240
attr interpolationmode none
attr recordingmode sum(packetBytes)
attr source ieee80211Retry(packetReceivedFromPeer)
attr title "packets received: with retry, sum(packetBytes)"
scalar WLAN.host[0].wlan[0].mac.dcf packetReceivedFromPeerWithoutRetry:count 226
attr interpolationmode none
attr recordingmode count
attr source ieee80211NotRetry(packetReceivedFromPeer)
attr title "packets received: without retry, count"
scalar WLAN.host[0].wlan[0].mac.dcf packetReceivedFromPeerWithoutRetry:sum(packetBytes) 14638
attr interpolationmode none
attr recordingmode sum(packetBytes)
attr source ieee80211NotRetry(packetReceivedFromPeer)
attr title "packets received: without retry, sum(packetBytes)"
scalar WLAN.host[0].wlan[0].mac.dcf packetSentToPeer:count 221
attr interpolationmode none
attr recordingmode count
attr title "packets sent, count"
scalar WLAN.host[0].wlan[0].mac.dcf packetSentToPeer:sum(packetBytes) 14780
attr interpolationmode none
attr recordingmode sum(packetBytes)
attr title "packets sent, sum(packetBytes)"
scalar WLAN.host[0].wlan[0].mac.dcf packetSentToPeerUnicast:count 221
attr interpolationmode none
attr recordingmode count
attr source ieee80211Unicast(packetSentToPeer)
attr title "packets sent: unicast, count"
scalar WLAN.host[0].wlan[0].mac.dcf packetSentToPeerUnicast:sum(packetBytes) 14780
attr interpolationmode none
attr recordingmode sum(packetBytes)
attr source ieee80211Unicast(packetSentToPeer)
attr title "packets sent: unicast, sum(packetBytes)"
scalar WLAN.host[0].wlan[0].mac.dcf packetSentToPeerMulticast:count 0
attr interpolationmode none
attr recordingmode count
attr source ieee80211Multicast(packetSentToPeer)
attr title "packets sent: multicast, count"
scalar WLAN.host[0].wlan[0].mac.dcf packetSentToPeerMulticast:sum(packetBytes) 0
attr interpolationmode none
attr recordingmode sum(packetBytes)
attr source ieee80211Multicast(packetSentToPeer)
attr title "packets sent: multicast, sum(packetBytes)"
scalar WLAN.host[0].wlan[0].mac.dcf packetSentToPeerBroadcast:count 0
attr interpolationmode none
attr recordingmode count
attr source ieee80211Broadcast(packetSentToPeer)
attr title "packets sent: broadcast , count"
scalar WLAN.host[0].wlan[0].mac.dcf packetSentToPeerBroadcast:sum(packetBytes) 0
attr interpolationmode none
attr recordingmode sum(packetBytes)
attr source ieee80211Broadcast(packetSentToPeer)
attr title "packets sent: broadcast , sum(packetBytes)"
scalar WLAN.host[0].wlan[0].mac.dcf packetSentToPeerWithRetry:count 2
attr interpolationmode none
attr recordingmode count
attr source ieee80211Retry(packetSentToPeer)
attr title "packets sent: with retry, count"
scalar WLAN.host[0].wlan[0].mac.dcf packetSentToPeerWithRetry:sum(packetBytes) 240
attr interpolationmode none
attr recordingmode sum(packetBytes)
attr source ieee80211Retry(packetSentToPeer)
attr title "packets sent: with retry, sum(packetBytes)"
scalar WLAN.host[0].wlan[0].mac.dcf packetSentToPeerWithoutRetry:count 219
attr interpolationmode none
attr recordingmode count
attr source ieee80211NotRetry(packetSentToPeer)
attr title "packets sent: without retry, count"
scalar WLAN.host[0].wlan[0].mac.dcf packetSentToPeerWithoutRetry:sum(packetBytes) 14540
attr interpolationmode none
attr recordingmode sum(packetBytes)
attr source ieee80211NotRetry(packetSentToPeer)
attr title "packets sent: without retry, sum(packetBytes)"
scalar WLAN.host[0].wlan[0].mac.dcf packetDrop:count 456
attr interpolationmode none
attr recordingmode count
attr source packetDropped
attr title "packet drops, count"
scalar WLAN.host[0].wlan[0].mac.dcf packetDrop:sum(packetBytes) 29544
attr interpolationmode none
attr recordingmode sum(packetBytes)
attr source packetDropped
attr title "packet drops, sum(packetBytes)"
scalar WLAN.host[0].wlan[0].mac.dcf packetDropNotAddressedToUs:count 456
attr interpolationmode none
attr recordingmode count
attr source packetDropReasonIsNotAddressedToUs(packetDropped)
attr title "packet drops: not addressed to us, count"
scalar WLAN.host[0].wlan[0].mac.dcf packetDropNotAddressedToUs:sum(packetBytes) 29544
attr interpolationmode none
attr recordingmode sum(packetBytes)
attr source packetDropReasonIsNotAddressedToUs(packetDropped)
attr title "packet drops: not addressed to us, sum(packetBytes)"
scalar WLAN.host[0].wlan[0].mac.dcf packetDropQueueOverflow:count 0
attr interpolationmode none
attr recordingmode count
attr source packetDropReasonIsQueueOverflow(packetDropped)
attr title "packet drops: queue overflow, count"
scalar WLAN.host[0].wlan[0].mac.dcf packetDropQueueOverflow:sum(packetBytes) 0
attr interpolationmode none
attr recordingmode sum(packetBytes)
attr source packetDropReasonIsQueueOverflow(packetDropped)
attr title "packet drops: queue overflow, sum(packetBytes)"
scalar WLAN.host[0].wlan[0].mac.dcf packetDropRetryLimitReached:count 0
attr interpolationmode none
attr recordingmode count
attr source packetDropReasonIsRetryLimitReached(packetDropped)
attr title "packet drops: retry limit reached, count"
scalar WLAN.host[0].wlan[0].mac.dcf packetDropRetryLimitReached:sum(packetBytes) 0
attr interpolationmode none
attr recordingmode sum(packetBytes)
attr source packetDropReasonIsRetryLimitReached(packetDropped)
attr title "packet drops: retry limit reached, sum(packetBytes)"
scalar WLAN.host[0].wlan[0].mac.dcf linkBroken:count 0
attr interpolationmode none
attr recordingmode count
attr title "link breaks, count"
scalar WLAN.host[0].wlan[0].mac.dcf frameSequenceFinished:count 115
attr recordingmode count
attr title "finished frame sequences, count"
statistic WLAN.host[0].wlan[0].mac.dcf frameSequenceDuration:histogram
field count 115
field mean 0.00013285673236522
field stddev 3.8171728459458e-07
field min 0.00013
field max 0.000132907294
field sum 0.015278524222
field sqrsum 2.0298714142195e-06
attr recordingmode histogram
attr source frameSequenceDuration(frameSequenceFinished)
attr title "frame sequence durations"
bin	-inf	0
bin	0	115
bin	0.01	0
bin	0.02	0
bin	0.03	0
bin	0.04	0
bin	0.05	0
bin	0.06	0
bin	0.07	0
bin	0.08	0
bin	0.09	0
bin	0.1	0
bin	0.11	0
bin	0.12	0
bin	0.13	0
bin	0.14	0
bin	0.15	0
bin	0.16	0
bin	0.17	0
bin	0.18	0
bin	0.19	0
bin	0.2	0
bin	0.21	0
bin	0.22	0
bin	0.23	0
bin	0.24	0
bin	0.25	0
bin	0.26	0
bin	0.27	0
bin	0.28	0
bin	0.29	0
bin	0.3	0
bin	0.31	0
bin	0.32	0
bin	0.33	0
bin	0.34	0
bin	0.35	0
bin	0.36	0
bin	0.37	0
bin	0.38	0
bin	0.39	0
bin	0.4	0
bin	0.41	0
bin	0.42	0
bin	0.43	0
bin	0.44	0
bin	0.45	0
bin	0.46	0
bin	0.47	0
bin	0.48	0
bin	0.49	0
bin	0.5	0
bin	0.51	0
statistic WLAN.host[0].wlan[0].mac.dcf frameSequenceNumPackets:histogram
field count 115
field mean 2
field stddev 0
field min 2
field max 2
field sum 230
field sqrsum 460
attr recordingmode histogram
attr source frameSequenceNumPackets(frameSequenceFinished)
attr title "frame sequences: number of packets"
bin	-inf	0
bin	1	0
bin	2	115
bin	3	0
par WLAN.host[0].wlan[0].mac.ds typename "\"inet.linklayer.ieee80211.mac.Ds\""
par WLAN.host[0].wlan[0].mac.ds mibModule "\"WLAN.host[0].wlan[0].mib\""
par WLAN.host[0].wlan[0].mac.rx typename "\"inet.linklayer.ieee80211.mac.Rx\""
par WLAN.host[0].wlan[0].mac.tx typename "\"inet.linklayer.ieee80211.mac.Tx\""
par WLAN.host[0].wlan[0].mac.tx rxModule "\"^.rx\""
par WLAN.host[0].wlan[0].mac typename "\"inet.linklayer.ieee80211.mac.Ieee80211Mac\""
par WLAN.host[0].wlan[0].mac interfaceTableModule "\"WLAN.host[0].interfaceTable\""
par WLAN.host[0].wlan[0].mac mibModule "\"WLAN.host[0].wlan[0].mib\""
par WLAN.host[0].wlan[0].mac modeSet "\"ac\""
attr enum a,b,g(erp),g(mixed),n(mixed-2.4Ghz),p,ac
par WLAN.host[0].wlan[0].mac fcsMode "\"declared\""
attr enum declared,computed
par WLAN.host[0].wlan[0].mac initialRadioMode "\"receiver\""
attr enum off,sleep,receiver,transmitter,transceiver
par WLAN.host[0].wlan[0].mac mtu 2304B
attr unit B
par WLAN.host[0].wlan[0].mac qosStation false
scalar WLAN.host[0].wlan[0].mac packetReceivedFromLower:count 684
attr interpolationmode none
attr recordingmode count
attr title "packets received from lower layer, count"
scalar WLAN.host[0].wlan[0].mac packetReceivedFromLower:sum(packetBytes) 44422
attr interpolationmode none
attr recordingmode sum(packetBytes)
attr title "packets received from lower layer, sum(packetBytes)"
scalar WLAN.host[0].wlan[0].mac packetSentToLower:count 221
attr interpolationmode none
attr recordingmode count
attr title "packets sent to lower layer, count"
scalar WLAN.host[0].wlan[0].mac packetSentToLower:sum(packetBytes) 14780
attr interpolationmode none
attr recordingmode sum(packetBytes)
attr title "packets sent to lower layer, sum(packetBytes)"
scalar WLAN.host[0].wlan[0].mac packetReceivedFromUpper:count 115
attr interpolationmode none
attr recordingmode count
attr title "packets received from upper layer, count"
scalar WLAN.host[0].wlan[0].mac packetReceivedFromUpper:sum(packetBytes) 10076
attr interpolationmode none
attr recordingmode sum(packetBytes)
attr title "packets received from upper layer, sum(packetBytes)"
scalar WLAN.host[0].wlan[0].mac packetSentToUpper:count 115
attr interpolationmode none
attr recordingmode count
attr title "packets sent to upper layer, count"
scalar WLAN.host[0].wlan[0].mac packetSentToUpper:sum(packetBytes) 10076
attr interpolationmode none
attr recordingmode sum(packetBytes)
attr title "packets sent to upper layer, sum(packetBytes)"
scalar WLAN.host[0].wlan[0].mac packetDrop:count 456
attr interpolationmode none
attr recordingmode count
attr source packetDropped
attr title "packet drops, count"
scalar WLAN.host[0].wlan[0].mac packetDrop:sum(packetBytes) 29544
attr interpolationmode none
attr recordingmode sum(packetBytes)
attr source packetDropped
attr title "packet drops, sum(packetBytes)"
scalar WLAN.host[0].wlan[0].mac packetDropIncorrectlyReceived:count 0
attr interpolationmode none
attr recordingmode count
attr source packetDropReasonIsIncorrectlyReceived(packetDropped)
attr title "packet drops: incorrectly received, count"
scalar WLAN.host[0].wlan[0].mac packetDropIncorrectlyReceived:sum(packetBytes) 0
attr interpolationmode none
attr recordingmode sum(packetBytes)
attr source packetDropReasonIsIncorrectlyReceived(packetDropped)
attr title "packet drops: incorrectly received, sum(packetBytes)"
scalar WLAN.host[0].wlan[0].mac packetDropNotAddressedToUs:count 456
attr interpolationmode none
attr recordingmode count
attr source packetDropReasonIsNotAddressedToUs(packetDropped)
attr title "packet drops: not addressed to us, count"
scalar WLAN.host[0].wlan[0].mac packetDropNotAddressedToUs:sum(packetBytes) 29544
attr interpolationmode none
attr recordingmode sum(packetBytes)
attr source packetDropReasonIsNotAddressedToUs(packetDropped)
attr title "packet drops: not addressed to us, sum(packetBytes)"
scalar WLAN.host[0].wlan[0].mac packetDropQueueOverflow:count 0
attr interpolationmode none
attr recordingmode count
attr source packetDropReasonIsQueueOverflow(packetDropped)
attr title "packet drops: queue overflow, count"
scalar WLAN.host[0].wlan[0].mac packetDropQueueOverflow:sum(packetBytes) 0
attr interpolationmode none
attr recordingmode sum(packetBytes)
attr source packetDropReasonIsQueueOverflow(packetDropped)
attr title "packet drops: queue overflow, sum(packetBytes)"
scalar WLAN.host[0].wlan[0].mac packetDropRetryLimitReached:count 0
attr interpolationmode none
attr recordingmode count
attr source packetDropReasonIsRetryLimitReached(packetDropped)
attr title "packet drops: retry limit reached, count"
scalar WLAN.host[0].wlan[0].mac packetDropRetryLimitReached:sum(packetBytes) 0
attr interpolationmode none
attr recordingmode sum(packetBytes)
attr source packetDropReasonIsRetryLimitReached(packetDropped)
attr title "packet drops: retry limit reached, sum(packetBytes)"
scalar WLAN.host[0].wlan[0].mac packetDropDuplicateDetected:count 0
attr interpolationmode none
attr recordingmode count
attr source packetDropReasonIsDuplicateDetected(packetDropped)
attr title "packet drops: duplicate detected, count"
scalar WLAN.host[0].wlan[0].mac packetDropDuplicateDetected:sum(packetBytes) 0
attr interpolationmode none
attr recordingmode sum(packetBytes)
attr source packetDropReasonIsDuplicateDetected(packetDropped)
attr title "packet drops: duplicate detected, sum(packetBytes)"
scalar WLAN.host[0].wlan[0].mac packetDropOther:count 0
attr interpolationmode none
attr recordingmode count
attr source packetDropReasonIsOther(packetDropped)
attr title "packet drops: other, count"
scalar WLAN.host[0].wlan[0].mac packetDropOther:sum(packetBytes) 0
attr interpolationmode none
attr recordingmode sum(packetBytes)
attr source packetDropReasonIsOther(packetDropped)
attr title "packet drops: other, sum(packetBytes)"
scalar WLAN.host[0].wlan[0].mac linkBroken:count 0
attr interpolationmode none
attr recordingmode count
attr title "link breaks, count"
par WLAN.host[0].wlan[0].radio.antenna typename "\"inet.physicallayer.wireless.common.antenna.IsotropicAntenna\""
par WLAN.host[0].wlan[0].radio.antenna mobilityModule "\"^.^.^.mobility\""
par WLAN.host[0].wlan[0].radio.antenna numAntennas 8
par WLAN.host[0].wlan[0].radio.transmitter typename "\"inet.physicallayer.wireless.ieee80211.packetlevel.Ieee80211ScalarTransmitter\""
par WLAN.host[0].wlan[0].radio.transmitter preambleDuration -1s
attr unit s
par WLAN.host[0].wlan[0].radio.transmitter headerLength 192b
attr unit b
par WLAN.host[0].wlan[0].radio.transmitter bitrate 6.933e+08bps
attr unit bps
par WLAN.host[0].wlan[0].radio.transmitter power 0.1W
attr unit W
par WLAN.host[0].wlan[0].radio.transmitter centerFrequency 2.412e+09Hz
attr unit Hz
par WLAN.host[0].wlan[0].radio.transmitter bandwidth "nan Hz"
attr unit Hz
par WLAN.host[0].wlan[0].radio.transmitter codeRate 1
par WLAN.host[0].wlan[0].radio.transmitter modulation "\"BPSK\""
par WLAN.host[0].wlan[0].radio.transmitter opMode "\"ac\""
attr enum a,b,g(erp),g(mixed),n(mixed-2.4Ghz),p,ac
par WLAN.host[0].wlan[0].radio.transmitter bandName "\"5 GHz (20 MHz)\""
attr enum "2.4 GHz,5 GHz,5 GHz (20 MHz),5 GHz (40 MHz),5 GHz (80 MHz),5 GHz (160 MHz),5.9 GHz"
par WLAN.host[0].wlan[0].radio.transmitter channelNumber 0
par WLAN.host[0].wlan[0].radio.receiver.errorModel typename "\"inet.physicallayer.wireless.ieee80211.packetlevel.errormodel.Ieee80211NistErrorModel\""
par WLAN.host[0].wlan[0].radio.receiver.errorModel corruptionMode "\"packet\""
attr enum packet,chunk,byte,bit
par WLAN.host[0].wlan[0].radio.receiver.errorModel snirMode "\"min\""
attr enum min,mean
par WLAN.host[0].wlan[0].radio.receiver.errorModel snirOffset 0dB
attr unit dB
par WLAN.host[0].wlan[0].radio.receiver typename "\"inet.physicallayer.wireless.ieee80211.packetlevel.Ieee80211ScalarReceiver\""
par WLAN.host[0].wlan[0].radio.receiver snirThreshold 4dB
attr unit dB
par WLAN.host[0].wlan[0].radio.receiver snirThresholdMode "\"min\""
attr enum min,mean
par WLAN.host[0].wlan[0].radio.receiver energyDetection -85dBm
attr unit dBm
par WLAN.host[0].wlan[0].radio.receiver sensitivity -85dBm
attr unit dBm
par WLAN.host[0].wlan[0].radio.receiver centerFrequency 2.412e+09Hz
attr unit Hz
par WLAN.host[0].wlan[0].radio.receiver bandwidth 2.2e+07Hz
attr unit Hz
par WLAN.host[0].wlan[0].radio.receiver modulation "\"BPSK\""
par WLAN.host[0].wlan[0].radio.receiver opMode "\"ac\""
attr enum a,b,g(erp),g(mixed),n(mixed-2.4Ghz),p,ac
par WLAN.host[0].wlan[0].radio.receiver bandName "\"5 GHz (20 MHz)\""
attr enum "2.4 GHz,5 GHz,5 GHz (20 MHz),5 GHz (40 MHz),5 GHz (80 MHz),5 GHz (160 MHz),5.9 GHz"
par WLAN.host[0].wlan[0].radio.receiver channelNumber 0
par WLAN.host[0].wlan[0].radio typename "\"inet.physicallayer.wireless.ieee80211.packetlevel.Ieee80211ScalarRadio\""
par WLAN.host[0].wlan[0].radio radioMediumModule "\"radioMedium\""
par WLAN.host[0].wlan[0].radio energySourceModule "\"\""
par WLAN.host[0].wlan[0].radio initialRadioMode "\"off\""
attr enum off,sleep,receiver,transmitter,transceiver
par WLAN.host[0].wlan[0].radio switchingTimes "\"ms 0 0 0 0 0 0 0 0 0 0 0 0 0 0 0 0 0 0 0 0 0 0 0 0 0\""
par WLAN.host[0].wlan[0].radio sendRawBytes false
par WLAN.host[0].wlan[0].radio separateTransmissionParts false
par WLAN.host[0].wlan[0].radio separateReceptionParts false
par WLAN.host[0].wlan[0].radio displayCommunicationRange false
par WLAN.host[0].wlan[0].radio displayInterferenceRange false
par WLAN.host[0].wlan[0].radio centerFrequency 2.412e+09Hz
attr unit Hz
par WLAN.host[0].wlan[0].radio bandwidth "nan Hz"
attr unit Hz
par WLAN.host[0].wlan[0].radio signalAnalogRepresentation "\"scalar\""
attr enum scalar,dimensional
par WLAN.host[0].wlan[0].radio opMode "\"ac\""
attr enum a,b,g(erp),g(mixed),n(mixed-2.4Ghz),p,ac
par WLAN.host[0].wlan[0].radio bandName "\"5 GHz (20 MHz)\""
attr enum "2.4 GHz,5 GHz,5 GHz (20 MHz),5 GHz (40 MHz),5 GHz (80 MHz),5 GHz (160 MHz),5.9 GHz"
par WLAN.host[0].wlan[0].radio channelNumber 0
par WLAN.host[0].wlan[0].radio crcMode "\"declared\""
attr enum declared,computed
statistic WLAN.host[0].wlan[0].radio minSnir:histogram
field count 685
field mean 3343065701591.7
field stddev 4720922004039.6
field min 12259.377244912
field max 10000000000000
field sum 2.2900000055903e+15
field sqrsum 2.29e+28
attr recordingmode histogram
attr source minimumSnir(packetSentToUpper)
attr title "Min SNIR"
bin	-inf	0
bin	0	456
bin	200000000000	0
bin	400000000000	0
bin	600000000000	0
bin	800000000000	0
bin	1000000000000	0
bin	1200000000000	0
bin	1400000000000	0
bin	1600000000000	0
bin	1800000000000	0
bin	2000000000000	0
bin	2200000000000	0
bin	2400000000000	0
bin	2600000000000	0
bin	2800000000000	0
bin	3000000000000	0
bin	3200000000000	0
bin	3400000000000	0
bin	3600000000000	0
bin	3800000000000	0
bin	4000000000000	0
bin	4200000000000	0
bin	4400000000000	0
bin	4600000000000	0
bin	4800000000000	0
bin	5000000000000	0
bin	5200000000000	0
bin	5400000000000	0
bin	5600000000000	0
bin	5800000000000	0
bin	6000000000000	0
bin	6200000000000	0
bin	6400000000000	0
bin	6600000000000	0
bin	6800000000000	0
bin	7000000000000	0
bin	7200000000000	0
bin	7400000000000	0
bin	7600000000000	0
bin	7800000000000	0
bin	8000000000000	0
bin	8200000000000	0
bin	8400000000000	0
bin	8600000000000	0
bin	8800000000000	0
bin	9000000000000	0
bin	9200000000000	0
bin	9400000000000	0
bin	9600000000000	0
bin	9800000000000	0
bin	10000000000000	229
bin	10200000000000	0
bin	10400000000000	0
bin	10600000000000	0
bin	10800000000000	0
bin	11000000000000	0
bin	11200000000000	0
bin	11400000000000	0
bin	11600000000000	0
bin	11800000000000	0
bin	12000000000000	0
bin	12200000000000	0
bin	12400000000000	0
bin	12600000000000	0
statistic WLAN.host[0].wlan[0].radio packetErrorRate:histogram
field count 685
field mean 0
field stddev 0
field min 0
field max 0
field sum 0
field sqrsum 0
attr recordingmode histogram
attr source packetErrorRate(packetSentToUpper)
attr title "Packet error rate"
bin	-inf	0
bin	-0.5	0
bin	-0.48	0
bin	-0.46	0
bin	-0.44	0
bin	-0.42	0
bin	-0.4	0
bin	-0.38	0
bin	-0.36	0
bin	-0.34	0
bin	-0.32	0
bin	-0.3	0
bin	-0.28	0
bin	-0.26	0
bin	-0.24	0
bin	-0.22	0
bin	-0.2	0
bin	-0.18	0
bin	-0.16	0
bin	-0.14	0
bin	-0.12	0
bin	-0.1	0
bin	-0.08	0
bin	-0.06	0
bin	-0.04	0
bin	-0.02	0
bin	0	685
bin	0.02	0
bin	0.04	0
bin	0.06	0
bin	0.08	0
bin	0.1	0
bin	0.12	0
bin	0.14	0
bin	0.16	0
bin	0.18	0
bin	0.2	0
bin	0.22	0
bin	0.24	0
bin	0.26	0
bin	0.28	0
bin	0.3	0
bin	0.32	0
bin	0.34	0
bin	0.36	0
bin	0.38	0
bin	0.4	0
bin	0.42	0
bin	0.44	0
bin	0.46	0
bin	0.48	0
bin	0.5	0
statistic WLAN.host[0].wlan[0].radio bitErrorRate:histogram
field count 0
field mean nan
field stddev nan
field min nan
field max nan
field sum 0
field sqrsum 0
attr recordingmode histogram
attr source bitErrorRate(packetSentToUpper)
attr title "Bit error rate"
bin	-inf	0
bin	0	0
bin	1	0
statistic WLAN.host[0].wlan[0].radio symbolErrorRate:histogram
field count 0
field mean nan
field stddev nan
field min nan
field max nan
field sum 0
field sqrsum 0
attr recordingmode histogram
attr source symbolErrorRate(packetSentToUpper)
attr title "Symbol error rate"
bin	-inf	0
bin	0	0
bin	1	0
scalar WLAN.host[0].wlan[0].radio transmissionState:count 884
attr interpolationmode sample-hold
attr recordingmode count
attr source transmissionStateChanged
attr title "Radio transmission state, count"
scalar WLAN.host[0].wlan[0].radio receptionState:count 1815
attr interpolationmode sample-hold
attr recordingmode count
attr source receptionStateChanged
attr title "Radio reception state, count"
scalar WLAN.host[0].wlan[0].radio radioMode:count 445
attr interpolationmode sample-hold
attr recordingmode count
attr source radioModeChanged
attr title "Radio mode, count"
statistic WLAN.host[0].wlan[0].radio radioChannel:histogram
field count 1
field mean 0
field stddev nan
field min 0
field max 0
field sum 0
field sqrsum 0
attr interpolationmode sample-hold
attr recordingmode histogram
attr source radioChannelChanged
attr title "Radio channel"
bin	-inf	0
bin	-0.5	0
bin	-0.48	0
bin	-0.46	0
bin	-0.44	0
bin	-0.42	0
bin	-0.4	0
bin	-0.38	0
bin	-0.36	0
bin	-0.34	0
bin	-0.32	0
bin	-0.3	0
bin	-0.28	0
bin	-0.26	0
bin	-0.24	0
bin	-0.22	0
bin	-0.2	0
bin	-0.18	0
bin	-0.16	0
bin	-0.14	0
bin	-0.12	0
bin	-0.1	0
bin	-0.08	0
bin	-0.06	0
bin	-0.04	0
bin	-0.02	0
bin	0	1
bin	0.02	0
bin	0.04	0
bin	0.06	0
bin	0.08	0
bin	0.1	0
bin	0.12	0
bin	0.14	0
bin	0.16	0
bin	0.18	0
bin	0.2	0
bin	0.22	0
bin	0.24	0
bin	0.26	0
bin	0.28	0
bin	0.3	0
bin	0.32	0
bin	0.34	0
bin	0.36	0
bin	0.38	0
bin	0.4	0
bin	0.42	0
bin	0.44	0
bin	0.46	0
bin	0.48	0
bin	0.5	0
par WLAN.host[0].wlan[0] typename "\"inet.linklayer.ieee80211.Ieee80211Interface\""
par WLAN.host[0].wlan[0] displayStringTextFormat "\"%a (%i)\\n%m\""
par WLAN.host[0].wlan[0] recordPcap false
par WLAN.host[0].wlan[0] numPcapRecorders 0
par WLAN.host[0].wlan[0] interfaceTableModule "\"WLAN.host[0].interfaceTable\""
par WLAN.host[0].wlan[0] energySourceModule "\"\""
par WLAN.host[0].wlan[0] opMode "\"ac\""
attr enum a,b,g(erp),g(mixed),n(mixed-2.4Ghz),p,ac
par WLAN.host[0].wlan[0] address "\"0A-AA-00-00-00-01\""
attr mutable ""
par WLAN.host[0].wlan[0] protocol "\"\""
par WLAN.host[0].wlan[0] bitrate 6.933e+08bps
attr unit bps
scalar WLAN.host[0].wlan[0] packetDropInterfaceDown:count 0
attr interpolationmode none
attr recordingmode count
attr source packetDropReasonIsInterfaceDown(packetDropped)
attr title "packet drops: interface down, count"
scalar WLAN.host[0].wlan[0] packetDropInterfaceDown:sum(packetBytes) 0
attr interpolationmode none
attr recordingmode sum(packetBytes)
attr source packetDropReasonIsInterfaceDown(packetDropped)
attr title "packet drops: interface down, sum(packetBytes)"
scalar WLAN.host[0].wlan[0] packetDropNoCarrier:count 0
attr interpolationmode none
attr recordingmode count
attr source packetDropReasonIsNoCarrier(packetDropped)
attr title "packet drops: no carrier, count"
scalar WLAN.host[0].wlan[0] packetDropNoCarrier:sum(packetBytes) 0
attr interpolationmode none
attr recordingmode sum(packetBytes)
attr source packetDropReasonIsNoCarrier(packetDropped)
attr title "packet drops: no carrier, sum(packetBytes)"
par WLAN.host[0].ipv4.transportIn.channel typename "\"ned.IdealChannel\""
par WLAN.host[0].ipv4.up.out[0].channel typename "\"ned.IdealChannel\""
par WLAN.host[0].ipv4.lp.out[2].channel typename "\"ned.IdealChannel\""
par WLAN.host[0].ipv4.ifIn.channel typename "\"ned.IdealChannel\""
par WLAN.host[0].ipv4.configurator typename "\"inet.networklayer.configurator.ipv4.Ipv4NodeConfigurator\""
par WLAN.host[0].ipv4.configurator interfaceTableModule "\"WLAN.host[0].interfaceTable\""
par WLAN.host[0].ipv4.configurator routingTableModule "\"WLAN.host[0].ipv4.routingTable\""
par WLAN.host[0].ipv4.configurator networkConfiguratorModule "\"configurator\""
par WLAN.host[0].ipv4.configurator configureRoutingTable true
par WLAN.host[0].ipv4.routingTable typename "\"inet.networklayer.ipv4.Ipv4RoutingTable\""
par WLAN.host[0].ipv4.routingTable interfaceTableModule "\"WLAN.host[0].interfaceTable\""
par WLAN.host[0].ipv4.routingTable routerId "\"auto\""
par WLAN.host[0].ipv4.routingTable netmaskRoutes "\"*\""
par WLAN.host[0].ipv4.routingTable forwarding false
par WLAN.host[0].ipv4.routingTable multicastForwarding false
par WLAN.host[0].ipv4.routingTable useAdminDist false
par WLAN.host[0].ipv4.routingTable routingFile "\"\""
par WLAN.host[0].ipv4.natTable typename "\"inet.networklayer.ipv4.Ipv4NatTable\""
par WLAN.host[0].ipv4.natTable networkProtocolModule "\"^.ip\""
par WLAN.host[0].ipv4.natTable config "<config/> at content:1"
par WLAN.host[0].ipv4.up typename "\"inet.common.MessageDispatcher\""
par WLAN.host[0].ipv4.up displayStringTextFormat "\"processed %p pk (%l)\""
par WLAN.host[0].ipv4.up forwardServiceRegistration true
par WLAN.host[0].ipv4.up forwardProtocolRegistration true
par WLAN.host[0].ipv4.igmp typename "\"inet.networklayer.ipv4.Igmpv2\""
par WLAN.host[0].ipv4.igmp interfaceTableModule "\"WLAN.host[0].interfaceTable\""
par WLAN.host[0].ipv4.igmp routingTableModule "\"WLAN.host[0].ipv4.routingTable\""
par WLAN.host[0].ipv4.igmp crcMode "\"declared\""
attr enum declared,computed
par WLAN.host[0].ipv4.igmp enabled true
par WLAN.host[0].ipv4.igmp robustnessVariable 2
par WLAN.host[0].ipv4.igmp queryInterval 125s
attr unit s
par WLAN.host[0].ipv4.igmp queryResponseInterval 10s
attr unit s
par WLAN.host[0].ipv4.igmp groupMembershipInterval 260s
attr unit s
par WLAN.host[0].ipv4.igmp otherQuerierPresentInterval 255s
attr unit s
par WLAN.host[0].ipv4.igmp startupQueryInterval 31.25s
attr unit s
par WLAN.host[0].ipv4.igmp startupQueryCount 2
par WLAN.host[0].ipv4.igmp lastMemberQueryInterval 1s
attr unit s
par WLAN.host[0].ipv4.igmp lastMemberQueryCount 2
par WLAN.host[0].ipv4.igmp unsolicitedReportInterval 10s
attr unit s
par WLAN.host[0].ipv4.icmp typename "\"inet.networklayer.ipv4.Icmp\""
par WLAN.host[0].ipv4.icmp interfaceTableModule "\"WLAN.host[0].interfaceTable\""
par WLAN.host[0].ipv4.icmp routingTableModule "\"WLAN.host[0].ipv4.routingTable\""
par WLAN.host[0].ipv4.icmp crcMode "\"declared\""
attr enum declared,computed
attr mutable ""
par WLAN.host[0].ipv4.icmp quoteLength 8B
attr mutable ""
attr unit B
par WLAN.host[0].ipv4.mp typename "\"inet.common.MessageDispatcher\""
par WLAN.host[0].ipv4.mp displayStringTextFormat "\"processed %p pk (%l)\""
par WLAN.host[0].ipv4.mp forwardServiceRegistration true
par WLAN.host[0].ipv4.mp forwardProtocolRegistration true
par WLAN.host[0].ipv4.ip typename "\"inet.networklayer.ipv4.Ipv4\""
par WLAN.host[0].ipv4.ip interfaceTableModule "\"WLAN.host[0].interfaceTable\""
par WLAN.host[0].ipv4.ip routingTableModule "\"WLAN.host[0].ipv4.routingTable\""
par WLAN.host[0].ipv4.ip arpModule "\"WLAN.host[0].ipv4.arp\""
par WLAN.host[0].ipv4.ip icmpModule "\"WLAN.host[0].ipv4.icmp\""
par WLAN.host[0].ipv4.ip crcMode "\"declared\""
attr enum declared,computed
par WLAN.host[0].ipv4.ip timeToLive 32
par WLAN.host[0].ipv4.ip multicastTimeToLive 32
par WLAN.host[0].ipv4.ip fragmentTimeout 60s
attr unit s
par WLAN.host[0].ipv4.ip limitedBroadcast false
par WLAN.host[0].ipv4.ip directBroadcastInterfaces "\"\""
scalar WLAN.host[0].ipv4.ip packetDropAddressResolutionFailed:count 0
attr interpolationmode none
attr recordingmode count
attr source packetDropReasonIsAddressResolutionFailed(packetDropped)
attr title "packet drop: address resolution failed, count"
scalar WLAN.host[0].ipv4.ip packetDropAddressResolutionFailed:sum(packetBytes) 0
attr interpolationmode none
attr recordingmode sum(packetBytes)
attr source packetDropReasonIsAddressResolutionFailed(packetDropped)
attr title "packet drop: address resolution failed, sum(packetBytes)"
scalar WLAN.host[0].ipv4.ip packetDropHopLimitReached:count 0
attr interpolationmode none
attr recordingmode count
attr source packetDropReasonIsHopLimitReached(packetDropped)
attr title "packet drop: hop limit reached, count"
scalar WLAN.host[0].ipv4.ip packetDropHopLimitReached:sum(packetBytes) 0
attr interpolationmode none
attr recordingmode sum(packetBytes)
attr source packetDropReasonIsHopLimitReached(packetDropped)
attr title "packet drop: hop limit reached, sum(packetBytes)"
scalar WLAN.host[0].ipv4.ip packetDropForwardingDisabled:count 0
attr interpolationmode none
attr recordingmode count
attr source packetDropReasonIsForwardingDisabled(packetDropped)
attr title "packet drop: forwarding disabled, count"
scalar WLAN.host[0].ipv4.ip packetDropForwardingDisabled:sum(packetBytes) 0
attr interpolationmode none
attr recordingmode sum(packetBytes)
attr source packetDropReasonIsForwardingDisabled(packetDropped)
attr title "packet drop: forwarding disabled, sum(packetBytes)"
scalar WLAN.host[0].ipv4.ip packetDropNoInterfaceFound:count 0
attr interpolationmode none
attr recordingmode count
attr source packetDropReasonIsNoInterfaceFound(packetDropped)
attr title "packet drop: no interface found, count"
scalar WLAN.host[0].ipv4.ip packetDropNoInterfaceFound:sum(packetBytes) 0
attr interpolationmode none
attr recordingmode sum(packetBytes)
attr source packetDropReasonIsNoInterfaceFound(packetDropped)
attr title "packet drop: no interface found, sum(packetBytes)"
scalar WLAN.host[0].ipv4.ip packetDropNoRouteFound:count 0
attr interpolationmode none
attr recordingmode count
attr source packetDropReasonIsNoRouteFound(packetDropped)
attr title "packet drop: no route found, count"
scalar WLAN.host[0].ipv4.ip packetDropNoRouteFound:sum(packetBytes) 0
attr interpolationmode none
attr recordingmode sum(packetBytes)
attr source packetDropReasonIsNoRouteFound(packetDropped)
attr title "packet drop: no route found, sum(packetBytes)"
scalar WLAN.host[0].ipv4.ip packetDropUndefined:count 0
attr interpolationmode none
attr recordingmode count
attr source packetDropReasonIsUndefined(packetDropped)
attr title "packet drop: undefined, count"
scalar WLAN.host[0].ipv4.ip packetDropUndefined:sum(packetBytes) 0
attr interpolationmode none
attr recordingmode sum(packetBytes)
attr source packetDropReasonIsUndefined(packetDropped)
attr title "packet drop: undefined, sum(packetBytes)"
par WLAN.host[0].ipv4.arp typename "\"inet.networklayer.arp.ipv4.Arp\""
par WLAN.host[0].ipv4.arp interfaceTableModule "\"WLAN.host[0].interfaceTable\""
par WLAN.host[0].ipv4.arp routingTableModule "\"WLAN.host[0].ipv4.routingTable\""
par WLAN.host[0].ipv4.arp retryTimeout 1s
attr unit s
par WLAN.host[0].ipv4.arp retryCount 3
par WLAN.host[0].ipv4.arp cacheTimeout 120s
attr unit s
par WLAN.host[0].ipv4.arp proxyArpInterfaces "\"\""
scalar WLAN.host[0].ipv4.arp arpReplySent:count 9
attr recordingmode count
attr source arpReplySent
attr title "ARP replies sent, count"
scalar WLAN.host[0].ipv4.arp arpReplySent:sum(packetBytes) 252
attr recordingmode sum(packetBytes)
attr source arpReplySent
attr title "ARP replies sent, sum(packetBytes)"
scalar WLAN.host[0].ipv4.arp arpRequestSent:count 0
attr recordingmode count
attr source arpRequestSent
attr title "ARP request sent, count"
scalar WLAN.host[0].ipv4.arp arpRequestSent:sum(packetBytes) 0
attr recordingmode sum(packetBytes)
attr source arpRequestSent
attr title "ARP request sent, sum(packetBytes)"
scalar WLAN.host[0].ipv4.arp arpResolutionFailed:count 0
attr recordingmode count
attr title "ARP failed resolutions, count"
scalar WLAN.host[0].ipv4.arp arpResolutionCompleted:count 9
attr recordingmode count
attr title "ARP completed resolutions, count"
scalar WLAN.host[0].ipv4.arp arpResolutionInitiated:count 0
attr recordingmode count
attr title "ARP initiated resolutions, count"
par WLAN.host[0].ipv4.lp typename "\"inet.common.MessageDispatcher\""
par WLAN.host[0].ipv4.lp displayStringTextFormat "\"processed %p pk (%l)\""
par WLAN.host[0].ipv4.lp forwardServiceRegistration true
par WLAN.host[0].ipv4.lp forwardProtocolRegistration true
par WLAN.host[0].ipv4 typename "\"inet.networklayer.ipv4.Ipv4NetworkLayer\""
par WLAN.host[0].ipv4 forwarding false
par WLAN.host[0].ipv4 multicastForwarding false
par WLAN.host[0].ipv4 interfaceTableModule "\"WLAN.host[0].interfaceTable\""
par WLAN.host[0].ipv4 displayStringTextFormat "\"%i\""
par WLAN.host[0].nl typename "\"inet.common.MessageDispatcher\""
par WLAN.host[0].nl displayStringTextFormat "\"processed %p pk (%l)\""
par WLAN.host[0].nl forwardServiceRegistration true
par WLAN.host[0].nl forwardProtocolRegistration true
par WLAN.host[0].udp typename "\"inet.transportlayer.udp.Udp\""
par WLAN.host[0].udp interfaceTableModule "\"WLAN.host[0].interfaceTable\""
par WLAN.host[0].udp icmpModule "\"^.ipv4.icmp\""
par WLAN.host[0].udp icmpv6Module "\"^.ipv6.icmpv6\""
par WLAN.host[0].udp crcMode "\"declared\""
attr enum disabled,declared,computed
par WLAN.host[0].udp defaultMulticastLoop true
scalar WLAN.host[0].udp packetReceived:count 0
attr interpolationmode none
attr recordingmode count
attr source packetReceived
attr title "packets received, count"
scalar WLAN.host[0].udp packetReceived:sum(packetBytes) 0
attr interpolationmode none
attr recordingmode sum(packetBytes)
attr source packetReceived
attr title "packets received, sum(packetBytes)"
scalar WLAN.host[0].udp packetSent:count 0
attr interpolationmode none
attr recordingmode count
attr source packetSent
attr title "packets sent, count"
scalar WLAN.host[0].udp packetSent:sum(packetBytes) 0
attr interpolationmode none
attr recordingmode sum(packetBytes)
attr source packetSent
attr title "packets sent, sum(packetBytes)"
scalar WLAN.host[0].udp passedUpPk:count 0
attr interpolationmode none
attr recordingmode count
attr source packetSentToUpper
attr title "packets passed up, count"
scalar WLAN.host[0].udp droppedPkWrongPort:count 0
attr interpolationmode none
attr recordingmode count
attr source packetDropReasonIsNoPortFound(packetDropped)
attr title "packets dropped (wrong port), count"
scalar WLAN.host[0].udp droppedPkBadChecksum:count 0
attr interpolationmode none
attr recordingmode count
attr source packetDropReasonIsIncorrectlyReceived(packetDropped)
attr title "packets dropped (checksum error), count"
par WLAN.host[0].tcp typename "\"inet.transportlayer.tcp.Tcp\""
par WLAN.host[0].tcp crcMode "\"declared\""
attr enum declared,computed
par WLAN.host[0].tcp advertisedWindow 7504
par WLAN.host[0].tcp delayedAcksEnabled false
par WLAN.host[0].tcp nagleEnabled true
par WLAN.host[0].tcp limitedTransmitEnabled false
par WLAN.host[0].tcp increasedIWEnabled false
par WLAN.host[0].tcp sackSupport false
par WLAN.host[0].tcp windowScalingSupport false
par WLAN.host[0].tcp windowScalingFactor -1
par WLAN.host[0].tcp timestampSupport false
par WLAN.host[0].tcp mss 536
par WLAN.host[0].tcp msl 120s
attr unit s
par WLAN.host[0].tcp tcpAlgorithmClass "\"TcpReno\""
attr enum TcpVegas,TcpWestwood,TcpNewReno,TcpReno,TcpTahoe,TcpNoCongestionControl
par WLAN.host[0].tcp useDataNotification false
par WLAN.host[0].tcp dupthresh 3
par WLAN.host[0].tcp initialSsthresh 4294967295
par WLAN.host[0].tcp stopOperationExtraTime 0s
attr unit s
par WLAN.host[0].tcp stopOperationTimeout 2s
attr unit s
par WLAN.host[0].tcp ecnWillingness false
par WLAN.host[0].tcp dctcpGamma 0.0625
par WLAN.host[0].tn typename "\"inet.common.MessageDispatcher\""
par WLAN.host[0].tn displayStringTextFormat "\"processed %p pk (%l)\""
par WLAN.host[0].tn forwardServiceRegistration true
par WLAN.host[0].tn forwardProtocolRegistration true
par WLAN.host[0].app[0] typename "\"inet.applications.pingapp.PingApp\""
par WLAN.host[0].app[0] destAddr "\"\""
par WLAN.host[0].app[0] srcAddr "\"\""
par WLAN.host[0].app[0] packetSize 56B
attr unit B
par WLAN.host[0].app[0] sendInterval 0.01s
attr unit s
par WLAN.host[0].app[0] hopLimit -1
par WLAN.host[0].app[0] count -1
par WLAN.host[0].app[0] startTime 0.00844266s
attr unit s
par WLAN.host[0].app[0] stopTime -1s
attr unit s
par WLAN.host[0].app[0] sleepDuration 0s
attr unit s
par WLAN.host[0].app[0] continuous false
par WLAN.host[0].app[0] printPing false
par WLAN.host[0].app[0] crcMode "\"declared\""
attr enum declared,computed
par WLAN.host[0].app[0] networkProtocol "\"\""
par WLAN.host[0].app[0] stopOperationExtraTime -1s
attr unit s
par WLAN.host[0].app[0] stopOperationTimeout 2s
attr unit s
scalar WLAN.host[0].app[0] pingRxSeq:count 0
attr interpolationmode none
attr recordingmode count
attr title "ping rx seq, count"
scalar WLAN.host[0].app[0] pingTxSeq:count 0
attr interpolationmode none
attr recordingmode count
attr title "ping tx seq, count"
scalar WLAN.host[0].app[0] numOutOfOrderArrivals:last nan
attr interpolationmode none
attr recordingmode last
attr title "ping out-of-order arrivals, last"
scalar WLAN.host[0].app[0] numLost:last nan
attr interpolationmode none
attr recordingmode last
attr title "pings lost, last"
statistic WLAN.host[0].app[0] rtt:histogram
field count 0
field mean nan
field stddev nan
field min nan
field max nan
field sum 0
field sqrsum 0
attr interpolationmode none
attr recordingmode histogram
attr title "ping round-trip time"
attr unit s
bin	-inf	0
bin	0	0
bin	1	0
par WLAN.host[0].at typename "\"inet.common.MessageDispatcher\""
par WLAN.host[0].at displayStringTextFormat "\"processed %p pk (%l)\""
par WLAN.host[0].at forwardServiceRegistration true
par WLAN.host[0].at forwardProtocolRegistration true
par WLAN.host[0] typename "\"inet.node.inet.WirelessHost\""
par WLAN.host[0] hasStatus false
par WLAN.host[0] osgModel "\"\""
par WLAN.host[0] osgModelColor "\"\""
par WLAN.host[0] canvasImage "\"\""
par WLAN.host[0] canvasImageColor "\"\""
par WLAN.host[0] recordPcap false
par WLAN.host[0] numPcapRecorders 0
par WLAN.host[0] numLoInterfaces 1
par WLAN.host[0] numWlanInterfaces 1
par WLAN.host[0] numEthInterfaces 0
par WLAN.host[0] numPppInterfaces 0
par WLAN.host[0] numTunInterfaces 0
par WLAN.host[0] numVirtInterfaces 0
par WLAN.host[0] fcsMode "\"declared\""
attr enum declared,computed
par WLAN.host[0] hasIpv4 true
par WLAN.host[0] hasIpv6 false
par WLAN.host[0] hasGn false
par WLAN.host[0] forwarding false
par WLAN.host[0] multicastForwarding false
par WLAN.host[0] hasUdp true
par WLAN.host[0] hasTcp true
par WLAN.host[0] hasSctp false
par WLAN.host[0] numApps 1
par WLAN.host[1].radioIn[0].channel typename "\"ned.IdealChannel\""
par WLAN.host[1].mobility typename "\"inet.mobility.static.StationaryMobility\""
par WLAN.host[1].mobility subjectModule "\"^\""
par WLAN.host[1].mobility coordinateSystemModule "\"\""
par WLAN.host[1].mobility displayStringTextFormat "\"p: %p\\nv: %v\""
attr mutable ""
par WLAN.host[1].mobility updateDisplayString true
par WLAN.host[1].mobility constraintAreaMinX 0m
attr unit m
par WLAN.host[1].mobility constraintAreaMinY 0m
attr unit m
par WLAN.host[1].mobility constraintAreaMinZ 0m
attr unit m
par WLAN.host[1].mobility constraintAreaMaxX 500m
attr unit m
par WLAN.host[1].mobility constraintAreaMaxY 300m
attr unit m
par WLAN.host[1].mobility constraintAreaMaxZ 0m
attr unit m
par WLAN.host[1].mobility initialX 301.382m
attr unit m
par WLAN.host[1].mobility initialY 257.384m
attr unit m
par WLAN.host[1].mobility initialZ 0m
attr unit m
par WLAN.host[1].mobility initialLatitude "nan deg"
attr unit deg
par WLAN.host[1].mobility initialLongitude "nan deg"
attr unit deg
par WLAN.host[1].mobility initialAltitude 0m
attr unit m
par WLAN.host[1].mobility initialHeading 0deg
attr unit deg
par WLAN.host[1].mobility initialElevation 0deg
attr unit deg
par WLAN.host[1].mobility initialBank 0deg
attr unit deg
par WLAN.host[1].mobility initFromDisplayString true
par WLAN.host[1].mobility updateFromDisplayString true
par WLAN.host[1].interfaceTable typename "\"inet.networklayer.common.InterfaceTable\""
par WLAN.host[1].interfaceTable displayAddresses false
par WLAN.host[1].cb typename "\"inet.common.MessageDispatcher\""
par WLAN.host[1].cb displayStringTextFormat "\"processed %p pk (%l)\""
par WLAN.host[1].cb forwardServiceRegistration true
par WLAN.host[1].cb forwardProtocolRegistration true
par WLAN.host[1].bl typename "\"inet.common.MessageDispatcher\""
par WLAN.host[1].bl displayStringTextFormat "\"processed %p pk (%l)\""
par WLAN.host[1].bl forwardServiceRegistration true
par WLAN.host[1].bl forwardProtocolRegistration true
par WLAN.host[1].li typename "\"inet.common.MessageDispatcher\""
par WLAN.host[1].li displayStringTextFormat "\"processed %p pk (%l)\""
par WLAN.host[1].li forwardServiceRegistration true
par WLAN.host[1].li forwardProtocolRegistration true
par WLAN.host[1].lo[0].upperLayerIn.channel typename "\"ned.IdealChannel\""
par WLAN.host[1].lo[0].lo.upperLayerOut.channel typename "\"ned.IdealChannel\""
par WLAN.host[1].lo[0].lo typename "\"inet.linklayer.loopback.Loopback\""
par WLAN.host[1].lo[0].lo interfaceTableModule "\"WLAN.host[1].interfaceTable\""
par WLAN.host[1].lo[0].lo mtu 4470B
attr unit B
scalar WLAN.host[1].lo[0].lo rcvdPkFromHl:count 0
attr interpolationmode none
attr recordingmode count
attr source packetReceivedFromUpper
attr title "packets received from higher layer, count"
scalar WLAN.host[1].lo[0].lo rcvdPkFromHl:sum(packetBytes) 0
attr interpolationmode none
attr recordingmode sum(packetBytes)
attr source packetReceivedFromUpper
attr title "packets received from higher layer, sum(packetBytes)"
scalar WLAN.host[1].lo[0].lo passedUpPk:count 0
attr interpolationmode none
attr recordingmode count
attr source packetSentToUpper
attr title "packets passed to higher layer, count"
scalar WLAN.host[1].lo[0].lo passedUpPk:sum(packetBytes) 0
attr interpolationmode none
attr recordingmode sum(packetBytes)
attr source packetSentToUpper
attr title "packets passed to higher layer, sum(packetBytes)"
par WLAN.host[1].lo[0] typename "\"inet.linklayer.loopback.LoopbackInterface\""
par WLAN.host[1].lo[0] displayStringTextFormat "\"%a (%i)\\n%m\""
par WLAN.host[1].lo[0] recordPcap false
par WLAN.host[1].lo[0] numPcapRecorders 0
par WLAN.host[1].lo[0] interfaceTableModule "\"WLAN.host[1].interfaceTable\""
scalar WLAN.host[1].lo[0] packetDropInterfaceDown:count 0
attr interpolationmode none
attr recordingmode count
attr source packetDropReasonIsInterfaceDown(packetDropped)
attr title "packet drops: interface down, count"
scalar WLAN.host[1].lo[0] packetDropInterfaceDown:sum(packetBytes) 0
attr interpolationmode none
attr recordingmode sum(packetBytes)
attr source packetDropReasonIsInterfaceDown(packetDropped)
attr title "packet drops: interface down, sum(packetBytes)"
scalar WLAN.host[1].lo[0] packetDropNoCarrier:count 0
attr interpolationmode none
attr recordingmode count
attr source packetDropReasonIsNoCarrier(packetDropped)
attr title "packet drops: no carrier, count"
scalar WLAN.host[1].lo[0] packetDropNoCarrier:sum(packetBytes) 0
attr interpolationmode none
attr recordingmode sum(packetBytes)
attr source packetDropReasonIsNoCarrier(packetDropped)
attr title "packet drops: no carrier, sum(packetBytes)"
par WLAN.host[1].wlan[0].radioIn.channel typename "\"ned.IdealChannel\""
par WLAN.host[1].wlan[0].llc.upperLayerOut.channel typename "\"ned.IdealChannel\""
par WLAN.host[1].wlan[0].upperLayerIn.channel typename "\"ned.IdealChannel\""
par WLAN.host[1].wlan[0].mib typename "\"inet.linklayer.ieee80211.mib.Ieee80211Mib\""
par WLAN.host[1].wlan[0].llc typename "\"inet.linklayer.ieee80211.llc.Ieee80211LlcLpd\""
par WLAN.host[1].wlan[0].llc registerProtocol false
par WLAN.host[1].wlan[0].mgmt typename "\"inet.linklayer.ieee80211.mgmt.Ieee80211MgmtStaSimplified\""
par WLAN.host[1].wlan[0].mgmt accessPointAddress "\"10:00:00:00:00:00\""
par WLAN.host[1].wlan[0].mgmt interfaceTableModule "\"WLAN.host[1].interfaceTable\""
par WLAN.host[1].wlan[0].mgmt mibModule "\"WLAN.host[1].wlan[0].mib\""
par WLAN.host[1].wlan[0].mgmt macModule "\"WLAN.host[1].wlan[0].mac\""
par WLAN.host[1].wlan[0].mac.dcf.channelAccess.pendingQueue typename "\"inet.linklayer.ieee80211.mac.queue.PendingQueue\""
par WLAN.host[1].wlan[0].mac.dcf.channelAccess.pendingQueue displayStringTextFormat "\"contains %p pk (%l) pushed %u\\npulled %o removed %r dropped %d\""
par WLAN.host[1].wlan[0].mac.dcf.channelAccess.pendingQueue packetCapacity 100
par WLAN.host[1].wlan[0].mac.dcf.channelAccess.pendingQueue dataCapacity -1b
attr unit b
par WLAN.host[1].wlan[0].mac.dcf.channelAccess.pendingQueue dropperClass "\"inet::queueing::PacketAtCollectionEndDropper\""
par WLAN.host[1].wlan[0].mac.dcf.channelAccess.pendingQueue comparatorClass "\"inet::ieee80211::MgmtOverDataComparator\""
par WLAN.host[1].wlan[0].mac.dcf.channelAccess.pendingQueue bufferModule "\"\""
scalar WLAN.host[1].wlan[0].mac.dcf.channelAccess.pendingQueue queueLength:last 0
attr autoWarmupFilter false
attr interpolationmode sample-hold
attr recordingmode last
attr source "warmup(atomic(constant0(packetPushEnded) + count(packetPushStarted) - count(packetPulled) - count(packetRemoved) - count(packetDropped)))"
attr title "queue length, last"
attr unit pk
scalar WLAN.host[1].wlan[0].mac.dcf.channelAccess.pendingQueue queueLength:max 1
attr autoWarmupFilter false
attr interpolationmode sample-hold
attr recordingmode max
attr source "warmup(atomic(constant0(packetPushEnded) + count(packetPushStarted) - count(packetPulled) - count(packetRemoved) - count(packetDropped)))"
attr title "queue length, max"
attr unit pk
scalar WLAN.host[1].wlan[0].mac.dcf.channelAccess.pendingQueue queueLength:timeavg 0.034531120267932
attr autoWarmupFilter false
attr interpolationmode sample-hold
attr recordingmode timeavg
attr source "warmup(atomic(constant0(packetPushEnded) + count(packetPushStarted) - count(packetPulled) - count(packetRemoved) - count(packetDropped)))"
attr title "queue length, timeavg"
attr unit pk
scalar WLAN.host[1].wlan[0].mac.dcf.channelAccess.pendingQueue queueBitLength:last 0
attr autoWarmupFilter false
attr interpolationmode sample-hold
attr recordingmode last
attr source "warmup(atomic(constant0(packetPushEnded) + sum(packetLength(packetPushStarted)) - sum(packetLength(packetPulled)) - sum(packetLength(packetRemoved)) - sum(packetLength(packetDropped))))"
attr title "queue bit length, last"
attr unit b
scalar WLAN.host[1].wlan[0].mac.dcf.channelAccess.pendingQueue queueBitLength:max 960
attr autoWarmupFilter false
attr interpolationmode sample-hold
attr recordingmode max
attr source "warmup(atomic(constant0(packetPushEnded) + sum(packetLength(packetPushStarted)) - sum(packetLength(packetPulled)) - sum(packetLength(packetRemoved)) - sum(packetLength(packetDropped))))"
attr title "queue bit length, max"
attr unit b
scalar WLAN.host[1].wlan[0].mac.dcf.channelAccess.pendingQueue queueBitLength:timeavg 31.088486541268
attr autoWarmupFilter false
attr interpolationmode sample-hold
attr recordingmode timeavg
attr source "warmup(atomic(constant0(packetPushEnded) + sum(packetLength(packetPushStarted)) - sum(packetLength(packetPulled)) - sum(packetLength(packetRemoved)) - sum(packetLength(packetDropped))))"
attr title "queue bit length, timeavg"
attr unit b
statistic WLAN.host[1].wlan[0].mac.dcf.channelAccess.pendingQueue queueingTime:histogram
field count 13
field mean 0.00029430606107692
field stddev 0.00025050520595013
field min 8.2177609e-05
field max 0.001012992197
field sum 0.003825978794
field sqrsum 1.8790430471234e-06
attr interpolationmode none
attr recordingmode histogram
attr source queueingTime(packetPulled)
attr title "queueing times"
attr unit s
bin	-inf	0
bin	0	0
bin	2e-05	0
bin	4e-05	0
bin	6e-05	0
bin	8e-05	2
bin	0.0001	2
bin	0.00012	1
bin	0.00014	0
bin	0.00016	0
bin	0.00018	0
bin	0.0002	0
bin	0.00022	0
bin	0.00024	0
bin	0.00026	1
bin	0.00028	3
bin	0.0003	1
bin	0.00032	0
bin	0.00034	1
bin	0.00036	0
bin	0.00038	0
bin	0.0004	0
bin	0.00042	0
bin	0.00044	0
bin	0.00046	0
bin	0.00048	0
bin	0.0005	1
bin	0.00052	0
bin	0.00054	0
bin	0.00056	0
bin	0.00058	0
bin	0.0006	0
bin	0.00062	0
bin	0.00064	0
bin	0.00066	0
bin	0.00068	0
bin	0.0007	0
bin	0.00072	0
bin	0.00074	0
bin	0.00076	0
bin	0.00078	0
bin	0.0008	0
bin	0.00082	0
bin	0.00084	0
bin	0.00086	0
bin	0.00088	0
bin	0.0009	0
bin	0.00092	0
bin	0.00094	0
bin	0.00096	0
bin	0.00098	0
bin	0.001	1
bin	0.00102	0
bin	0.00104	0
bin	0.00106	0
bin	0.00108	0
bin	0.0011	0
bin	0.00112	0
bin	0.00114	0
bin	0.00116	0
bin	0.00118	0
bin	0.0012	0
bin	0.00122	0
bin	0.00124	0
bin	0.00126	0
scalar WLAN.host[1].wlan[0].mac.dcf.channelAccess.pendingQueue outgoingPackets:count 13
attr recordingmode count
attr source packetPulled
attr title "outgoing packets, count"
attr unit pk
scalar WLAN.host[1].wlan[0].mac.dcf.channelAccess.pendingQueue outgoingPacketLengths:sum 12032
attr interpolationmode none
attr recordingmode sum
attr source packetLength(packetPulled)
attr title "outgoing packet lengths, sum"
attr unit b
statistic WLAN.host[1].wlan[0].mac.dcf.channelAccess.pendingQueue outgoingPacketLengths:histogram
field count 13
field mean 925.53846153846
field stddev 124.25284395445
field min 512
field max 960
field sum 12032
field sqrsum 11321344
attr interpolationmode none
attr recordingmode histogram
attr source packetLength(packetPulled)
attr title "outgoing packet lengths"
attr unit b
bin	-inf	0
bin	400	0
bin	410	0
bin	420	0
bin	430	0
bin	440	0
bin	450	0
bin	460	0
bin	470	0
bin	480	0
bin	490	0
bin	500	0
bin	510	1
bin	520	0
bin	530	0
bin	540	0
bin	550	0
bin	560	0
bin	570	0
bin	580	0
bin	590	0
bin	600	0
bin	610	0
bin	620	0
bin	630	0
bin	640	0
bin	650	0
bin	660	0
bin	670	0
bin	680	0
bin	690	0
bin	700	0
bin	710	0
bin	720	0
bin	730	0
bin	740	0
bin	750	0
bin	760	0
bin	770	0
bin	780	0
bin	790	0
bin	800	0
bin	810	0
bin	820	0
bin	830	0
bin	840	0
bin	850	0
bin	860	0
bin	870	0
bin	880	0
bin	890	0
bin	900	0
bin	910	0
bin	920	0
bin	930	0
bin	940	0
bin	950	0
bin	960	12
bin	970	0
bin	980	0
bin	990	0
bin	1000	0
bin	1010	0
bin	1020	0
bin	1030	0
bin	1040	0
bin	1050	0
bin	1060	0
bin	1070	0
bin	1080	0
statistic WLAN.host[1].wlan[0].mac.dcf.channelAccess.pendingQueue flowQueueingTime:histogram
field count 0
field mean nan
field stddev nan
field min nan
field max nan
field sum 0
field sqrsum 0
attr interpolationmode none
attr recordingmode histogram
attr source queueingTime(demuxFlow(packetPulled))
attr title "flow queueing times"
attr unit s
bin	-inf	0
bin	0	0
bin	1	0
scalar WLAN.host[1].wlan[0].mac.dcf.channelAccess.pendingQueue incomingPackets:count 13
attr recordingmode count
attr source packetPushStarted
attr title "incoming packets, count"
attr unit pk
scalar WLAN.host[1].wlan[0].mac.dcf.channelAccess.pendingQueue incomingPacketLengths:sum 12032
attr interpolationmode none
attr recordingmode sum
attr source packetLength(packetPushStarted)
attr title "incoming packet lengths, sum"
attr unit b
statistic WLAN.host[1].wlan[0].mac.dcf.channelAccess.pendingQueue incomingPacketLengths:histogram
field count 13
field mean 925.53846153846
field stddev 124.25284395445
field min 512
field max 960
field sum 12032
field sqrsum 11321344
attr interpolationmode none
attr recordingmode histogram
attr source packetLength(packetPushStarted)
attr title "incoming packet lengths"
attr unit b
bin	-inf	0
bin	400	0
bin	410	0
bin	420	0
bin	430	0
bin	440	0
bin	450	0
bin	460	0
bin	470	0
bin	480	0
bin	490	0
bin	500	0
bin	510	1
bin	520	0
bin	530	0
bin	540	0
bin	550	0
bin	560	0
bin	570	0
bin	580	0
bin	590	0
bin	600	0
bin	610	0
bin	620	0
bin	630	0
bin	640	0
bin	650	0
bin	660	0
bin	670	0
bin	680	0
bin	690	0
bin	700	0
bin	710	0
bin	720	0
bin	730	0
bin	740	0
bin	750	0
bin	760	0
bin	770	0
bin	780	0
bin	790	0
bin	800	0
bin	810	0
bin	820	0
bin	830	0
bin	840	0
bin	850	0
bin	860	0
bin	870	0
bin	880	0
bin	890	0
bin	900	0
bin	910	0
bin	920	0
bin	930	0
bin	940	0
bin	950	0
bin	960	12
bin	970	0
bin	980	0
bin	990	0
bin	1000	0
bin	1010	0
bin	1020	0
bin	1030	0
bin	1040	0
bin	1050	0
bin	1060	0
bin	1070	0
bin	1080	0
scalar WLAN.host[1].wlan[0].mac.dcf.channelAccess.pendingQueue droppedPacketsQueueOverflow:count 0
attr interpolationmode none
attr recordingmode count
attr source packetDropReasonIsQueueOverflow(packetDropped)
attr title "dropped packets: queue overflow, count"
attr unit pk
scalar WLAN.host[1].wlan[0].mac.dcf.channelAccess.pendingQueue droppedPacketLengthsQueueOverflow:sum 0
attr interpolationmode none
attr recordingmode sum
attr source packetLength(packetDropReasonIsQueueOverflow(packetDropped))
attr title "dropped packet lengths: queue overflow, sum"
attr unit b
par WLAN.host[1].wlan[0].mac.dcf.channelAccess.inProgressFrames typename "\"inet.linklayer.ieee80211.mac.queue.InProgressFrames\""
par WLAN.host[1].wlan[0].mac.dcf.channelAccess.inProgressFrames pendingQueueModule "\"^.pendingQueue\""
par WLAN.host[1].wlan[0].mac.dcf.channelAccess.inProgressFrames originatorMacDataServiceModule "\"^.^.originatorMacDataService\""
par WLAN.host[1].wlan[0].mac.dcf.channelAccess.inProgressFrames ackHandlerModule "\"^.^.ackHandler\""
statistic WLAN.host[1].wlan[0].mac.dcf.channelAccess.inProgressFrames queueingTime:histogram
field count 13
field mean 0.00018536170123077
field stddev 0.00018912705489461
field min 0.000132907294
field max 0.000814814588
field sum 0.002409702116
field sqrsum 8.7589499839844e-07
attr interpolationmode none
attr recordingmode histogram
attr source queueingTime(packetDequeued)
attr title "queueing times"
bin	-inf	0
bin	0	0
bin	2e-05	0
bin	4e-05	0
bin	6e-05	0
bin	8e-05	0
bin	0.0001	0
bin	0.00012	12
bin	0.00014	0
bin	0.00016	0
bin	0.00018	0
bin	0.0002	0
bin	0.00022	0
bin	0.00024	0
bin	0.00026	0
bin	0.00028	0
bin	0.0003	0
bin	0.00032	0
bin	0.00034	0
bin	0.00036	0
bin	0.00038	0
bin	0.0004	0
bin	0.00042	0
bin	0.00044	0
bin	0.00046	0
bin	0.00048	0
bin	0.0005	0
bin	0.00052	0
bin	0.00054	0
bin	0.00056	0
bin	0.00058	0
bin	0.0006	0
bin	0.00062	0
bin	0.00064	0
bin	0.00066	0
bin	0.00068	0
bin	0.0007	0
bin	0.00072	0
bin	0.00074	0
bin	0.00076	0
bin	0.00078	0
bin	0.0008	1
bin	0.00082	0
bin	0.00084	0
bin	0.00086	0
bin	0.00088	0
bin	0.0009	0
bin	0.00092	0
bin	0.00094	0
bin	0.00096	0
bin	0.00098	0
[...]
field min 1
field max 2
field sum 447
field sqrsum 885
attr recordingmode histogram
attr source frameSequenceNumPackets(frameSequenceFinished)
attr title "frame sequences: number of packets"
bin	-inf	0
bin	0	0
bin	1	9
bin	2	219
bin	3	0
par WLAN.ap.wlan[0].mac.ds typename "\"inet.linklayer.ieee80211.mac.Ds\""
par WLAN.ap.wlan[0].mac.ds mibModule "\"WLAN.ap.wlan[0].mib\""
par WLAN.ap.wlan[0].mac.rx typename "\"inet.linklayer.ieee80211.mac.Rx\""
par WLAN.ap.wlan[0].mac.tx typename "\"inet.linklayer.ieee80211.mac.Tx\""
par WLAN.ap.wlan[0].mac.tx rxModule "\"^.rx\""
par WLAN.ap.wlan[0].mac typename "\"inet.linklayer.ieee80211.mac.Ieee80211Mac\""
par WLAN.ap.wlan[0].mac interfaceTableModule "\"WLAN.ap.interfaceTable\""
par WLAN.ap.wlan[0].mac mibModule "\"WLAN.ap.wlan[0].mib\""
par WLAN.ap.wlan[0].mac modeSet "\"ac\""
attr enum a,b,g(erp),g(mixed),n(mixed-2.4Ghz),p,ac
par WLAN.ap.wlan[0].mac fcsMode "\"declared\""
attr enum declared,computed
par WLAN.ap.wlan[0].mac initialRadioMode "\"receiver\""
attr enum off,sleep,receiver,transmitter,transceiver
par WLAN.ap.wlan[0].mac mtu 2304B
attr unit B
par WLAN.ap.wlan[0].mac qosStation false
scalar WLAN.ap.wlan[0].mac packetReceivedFromLower:count 449
attr interpolationmode none
attr recordingmode count
attr title "packets received from lower layer, count"
scalar WLAN.ap.wlan[0].mac packetReceivedFromLower:sum(packetBytes) 29658
attr interpolationmode none
attr recordingmode sum(packetBytes)
attr title "packets received from lower layer, sum(packetBytes)"
scalar WLAN.ap.wlan[0].mac packetSentToLower:count 456
attr interpolationmode none
attr recordingmode count
attr title "packets sent to lower layer, count"
scalar WLAN.ap.wlan[0].mac packetSentToLower:sum(packetBytes) 29544
attr interpolationmode none
attr recordingmode sum(packetBytes)
attr title "packets sent to lower layer, sum(packetBytes)"
scalar WLAN.ap.wlan[0].mac packetReceivedFromUpper:count 0
attr interpolationmode none
attr recordingmode count
attr title "packets received from upper layer, count"
scalar WLAN.ap.wlan[0].mac packetReceivedFromUpper:sum(packetBytes) 0
attr interpolationmode none
attr recordingmode sum(packetBytes)
attr title "packets received from upper layer, sum(packetBytes)"
scalar WLAN.ap.wlan[0].mac packetSentToUpper:count 9
attr interpolationmode none
attr recordingmode count
attr title "packets sent to upper layer, count"
scalar WLAN.ap.wlan[0].mac packetSentToUpper:sum(packetBytes) 324
attr interpolationmode none
attr recordingmode sum(packetBytes)
attr title "packets sent to upper layer, sum(packetBytes)"
scalar WLAN.ap.wlan[0].mac packetDrop:count 2
attr interpolationmode none
attr recordingmode count
attr source packetDropped
attr title "packet drops, count"
scalar WLAN.ap.wlan[0].mac packetDrop:sum(packetBytes) 240
attr interpolationmode none
attr recordingmode sum(packetBytes)
attr source packetDropped
attr title "packet drops, sum(packetBytes)"
scalar WLAN.ap.wlan[0].mac packetDropIncorrectlyReceived:count 2
attr interpolationmode none
attr recordingmode count
attr source packetDropReasonIsIncorrectlyReceived(packetDropped)
attr title "packet drops: incorrectly received, count"
scalar WLAN.ap.wlan[0].mac packetDropIncorrectlyReceived:sum(packetBytes) 240
attr interpolationmode none
attr recordingmode sum(packetBytes)
attr source packetDropReasonIsIncorrectlyReceived(packetDropped)
attr title "packet drops: incorrectly received, sum(packetBytes)"
scalar WLAN.ap.wlan[0].mac packetDropNotAddressedToUs:count 0
attr interpolationmode none
attr recordingmode count
attr source packetDropReasonIsNotAddressedToUs(packetDropped)
attr title "packet drops: not addressed to us, count"
scalar WLAN.ap.wlan[0].mac packetDropNotAddressedToUs:sum(packetBytes) 0
attr interpolationmode none
attr recordingmode sum(packetBytes)
attr source packetDropReasonIsNotAddressedToUs(packetDropped)
attr title "packet drops: not addressed to us, sum(packetBytes)"
scalar WLAN.ap.wlan[0].mac packetDropQueueOverflow:count 0
attr interpolationmode none
attr recordingmode count
attr source packetDropReasonIsQueueOverflow(packetDropped)
attr title "packet drops: queue overflow, count"
scalar WLAN.ap.wlan[0].mac packetDropQueueOverflow:sum(packetBytes) 0
attr interpolationmode none
attr recordingmode sum(packetBytes)
attr source packetDropReasonIsQueueOverflow(packetDropped)
attr title "packet drops: queue overflow, sum(packetBytes)"
scalar WLAN.ap.wlan[0].mac packetDropRetryLimitReached:count 0
attr interpolationmode none
attr recordingmode count
attr source packetDropReasonIsRetryLimitReached(packetDropped)
attr title "packet drops: retry limit reached, count"
scalar WLAN.ap.wlan[0].mac packetDropRetryLimitReached:sum(packetBytes) 0
attr interpolationmode none
attr recordingmode sum(packetBytes)
attr source packetDropReasonIsRetryLimitReached(packetDropped)
attr title "packet drops: retry limit reached, sum(packetBytes)"
scalar WLAN.ap.wlan[0].mac packetDropDuplicateDetected:count 0
attr interpolationmode none
attr recordingmode count
attr source packetDropReasonIsDuplicateDetected(packetDropped)
attr title "packet drops: duplicate detected, count"
scalar WLAN.ap.wlan[0].mac packetDropDuplicateDetected:sum(packetBytes) 0
attr interpolationmode none
attr recordingmode sum(packetBytes)
attr source packetDropReasonIsDuplicateDetected(packetDropped)
attr title "packet drops: duplicate detected, sum(packetBytes)"
scalar WLAN.ap.wlan[0].mac packetDropOther:count 0
attr interpolationmode none
attr recordingmode count
attr source packetDropReasonIsOther(packetDropped)
attr title "packet drops: other, count"
scalar WLAN.ap.wlan[0].mac packetDropOther:sum(packetBytes) 0
attr interpolationmode none
attr recordingmode sum(packetBytes)
attr source packetDropReasonIsOther(packetDropped)
attr title "packet drops: other, sum(packetBytes)"
scalar WLAN.ap.wlan[0].mac linkBroken:count 0
attr interpolationmode none
attr recordingmode count
attr title "link breaks, count"
par WLAN.ap.wlan[0].radio.antenna typename "\"inet.physicallayer.wireless.common.antenna.IsotropicAntenna\""
par WLAN.ap.wlan[0].radio.antenna mobilityModule "\"^.^.^.mobility\""
par WLAN.ap.wlan[0].radio.antenna numAntennas 8
par WLAN.ap.wlan[0].radio.transmitter typename "\"inet.physicallayer.wireless.ieee80211.packetlevel.Ieee80211ScalarTransmitter\""
par WLAN.ap.wlan[0].radio.transmitter preambleDuration -1s
attr unit s
par WLAN.ap.wlan[0].radio.transmitter headerLength 192b
attr unit b
par WLAN.ap.wlan[0].radio.transmitter bitrate 6.933e+08bps
attr unit bps
par WLAN.ap.wlan[0].radio.transmitter power 0.1W
attr unit W
par WLAN.ap.wlan[0].radio.transmitter centerFrequency 2.412e+09Hz
attr unit Hz
par WLAN.ap.wlan[0].radio.transmitter bandwidth "nan Hz"
attr unit Hz
par WLAN.ap.wlan[0].radio.transmitter codeRate 1
par WLAN.ap.wlan[0].radio.transmitter modulation "\"BPSK\""
par WLAN.ap.wlan[0].radio.transmitter opMode "\"ac\""
attr enum a,b,g(erp),g(mixed),n(mixed-2.4Ghz),p,ac
par WLAN.ap.wlan[0].radio.transmitter bandName "\"5 GHz (20 MHz)\""
attr enum "2.4 GHz,5 GHz,5 GHz (20 MHz),5 GHz (40 MHz),5 GHz (80 MHz),5 GHz (160 MHz),5.9 GHz"
par WLAN.ap.wlan[0].radio.transmitter channelNumber 0
par WLAN.ap.wlan[0].radio.receiver.errorModel typename "\"inet.physicallayer.wireless.ieee80211.packetlevel.errormodel.Ieee80211NistErrorModel\""
par WLAN.ap.wlan[0].radio.receiver.errorModel corruptionMode "\"packet\""
attr enum packet,chunk,byte,bit
par WLAN.ap.wlan[0].radio.receiver.errorModel snirMode "\"min\""
attr enum min,mean
par WLAN.ap.wlan[0].radio.receiver.errorModel snirOffset 0dB
attr unit dB
par WLAN.ap.wlan[0].radio.receiver typename "\"inet.physicallayer.wireless.ieee80211.packetlevel.Ieee80211ScalarReceiver\""
par WLAN.ap.wlan[0].radio.receiver snirThreshold 4dB
attr unit dB
par WLAN.ap.wlan[0].radio.receiver snirThresholdMode "\"min\""
attr enum min,mean
par WLAN.ap.wlan[0].radio.receiver energyDetection -85dBm
attr unit dBm
par WLAN.ap.wlan[0].radio.receiver sensitivity -85dBm
attr unit dBm
par WLAN.ap.wlan[0].radio.receiver centerFrequency 2.412e+09Hz
attr unit Hz
par WLAN.ap.wlan[0].radio.receiver bandwidth 2.2e+07Hz
attr unit Hz
par WLAN.ap.wlan[0].radio.receiver modulation "\"BPSK\""
par WLAN.ap.wlan[0].radio.receiver opMode "\"ac\""
attr enum a,b,g(erp),g(mixed),n(mixed-2.4Ghz),p,ac
par WLAN.ap.wlan[0].radio.receiver bandName "\"5 GHz (20 MHz)\""
attr enum "2.4 GHz,5 GHz,5 GHz (20 MHz),5 GHz (40 MHz),5 GHz (80 MHz),5 GHz (160 MHz),5.9 GHz"
par WLAN.ap.wlan[0].radio.receiver channelNumber 0
par WLAN.ap.wlan[0].radio typename "\"inet.physicallayer.wireless.ieee80211.packetlevel.Ieee80211ScalarRadio\""
par WLAN.ap.wlan[0].radio radioMediumModule "\"radioMedium\""
par WLAN.ap.wlan[0].radio energySourceModule "\"\""
par WLAN.ap.wlan[0].radio initialRadioMode "\"off\""
attr enum off,sleep,receiver,transmitter,transceiver
par WLAN.ap.wlan[0].radio switchingTimes "\"ms 0 0 0 0 0 0 0 0 0 0 0 0 0 0 0 0 0 0 0 0 0 0 0 0 0\""
par WLAN.ap.wlan[0].radio sendRawBytes false
par WLAN.ap.wlan[0].radio separateTransmissionParts false
par WLAN.ap.wlan[0].radio separateReceptionParts false
par WLAN.ap.wlan[0].radio displayCommunicationRange false
par WLAN.ap.wlan[0].radio displayInterferenceRange false
par WLAN.ap.wlan[0].radio centerFrequency 2.412e+09Hz
attr unit Hz
par WLAN.ap.wlan[0].radio bandwidth "nan Hz"
attr unit Hz
par WLAN.ap.wlan[0].radio signalAnalogRepresentation "\"scalar\""
attr enum scalar,dimensional
par WLAN.ap.wlan[0].radio opMode "\"ac\""
attr enum a,b,g(erp),g(mixed),n(mixed-2.4Ghz),p,ac
par WLAN.ap.wlan[0].radio bandName "\"5 GHz (20 MHz)\""
attr enum "2.4 GHz,5 GHz,5 GHz (20 MHz),5 GHz (40 MHz),5 GHz (80 MHz),5 GHz (160 MHz),5.9 GHz"
par WLAN.ap.wlan[0].radio channelNumber 0
par WLAN.ap.wlan[0].radio crcMode "\"declared\""
attr enum declared,computed
statistic WLAN.ap.wlan[0].radio minSnir:histogram
field count 449
field mean 12204.774227867
field stddev 817.22109236372
field min 0.99991843644123
field max 12259.377244912
field sum 5479943.6283123
field sqrsum 67180671705.575
attr recordingmode histogram
attr source minimumSnir(packetSentToUpper)
attr title "Min SNIR"
bin	-inf	0
bin	0	2
bin	200	0
bin	400	0
bin	600	0
bin	800	0
bin	1000	0
bin	1200	0
bin	1400	0
bin	1600	0
bin	1800	0
bin	2000	0
bin	2200	0
bin	2400	0
bin	2600	0
bin	2800	0
bin	3000	0
bin	3200	0
bin	3400	0
bin	3600	0
bin	3800	0
bin	4000	0
bin	4200	0
bin	4400	0
bin	4600	0
bin	4800	0
bin	5000	0
bin	5200	0
bin	5400	0
bin	5600	0
bin	5800	0
bin	6000	0
bin	6200	0
bin	6400	0
bin	6600	0
bin	6800	0
bin	7000	0
bin	7200	0
bin	7400	0
bin	7600	0
bin	7800	0
bin	8000	0
bin	8200	0
bin	8400	0
bin	8600	0
bin	8800	0
bin	9000	0
bin	9200	0
bin	9400	0
bin	9600	0
bin	9800	0
bin	10000	0
bin	10200	0
bin	10400	0
bin	10600	0
bin	10800	0
bin	11000	0
bin	11200	0
bin	11400	0
bin	11600	0
bin	11800	0
bin	12000	0
bin	12200	447
bin	12400	0
statistic WLAN.ap.wlan[0].radio packetErrorRate:histogram
field count 449
field mean 0.0044543429844098
field stddev 0.066666335241514
field min 0
field max 1
field sum 2
field sqrsum 2
attr recordingmode histogram
attr source packetErrorRate(packetSentToUpper)
attr title "Packet error rate"
bin	-inf	0
bin	-0.5	0
bin	-0.48	0
bin	-0.46	0
bin	-0.44	0
bin	-0.42	0
bin	-0.4	0
bin	-0.38	0
bin	-0.36	0
bin	-0.34	0
bin	-0.32	0
bin	-0.3	0
bin	-0.28	0
bin	-0.26	0
bin	-0.24	0
bin	-0.22	0
bin	-0.2	0
bin	-0.18	0
bin	-0.16	0
bin	-0.14	0
bin	-0.12	0
bin	-0.1	0
bin	-0.08	0
bin	-0.06	0
bin	-0.04	0
bin	-0.02	0
bin	0	447
bin	0.02	0
bin	0.04	0
bin	0.06	0
bin	0.08	0
bin	0.1	0
bin	0.12	0
bin	0.14	0
bin	0.16	0
bin	0.18	0
bin	0.2	0
bin	0.22	0
bin	0.24	0
bin	0.26	0
bin	0.28	0
bin	0.3	0
bin	0.32	0
bin	0.34	0
bin	0.36	0
bin	0.38	0
bin	0.4	0
bin	0.42	0
bin	0.44	0
bin	0.46	0
bin	0.48	0
bin	0.5	0
bin	0.52	0
bin	0.54	0
bin	0.56	0
bin	0.58	0
bin	0.6	0
bin	0.62	0
bin	0.64	0
bin	0.66	0
bin	0.68	0
bin	0.7	0
bin	0.72	0
bin	0.74	0
bin	0.76	0
bin	0.78	0
bin	0.8	0
bin	0.82	0
bin	0.84	0
bin	0.86	0
bin	0.88	0
bin	0.9	0
bin	0.92	0
bin	0.94	0
bin	0.96	0
bin	0.98	0
bin	1	2
bin	1.02	0
statistic WLAN.ap.wlan[0].radio bitErrorRate:histogram
field count 0
field mean nan
field stddev nan
field min nan
field max nan
field sum 0
field sqrsum 0
attr recordingmode histogram
attr source bitErrorRate(packetSentToUpper)
attr title "Bit error rate"
bin	-inf	0
bin	0	0
bin	1	0
statistic WLAN.ap.wlan[0].radio symbolErrorRate:histogram
field count 0
field mean nan
field stddev nan
field min nan
field max nan
field sum 0
field sqrsum 0
attr recordingmode histogram
attr source symbolErrorRate(packetSentToUpper)
attr title "Symbol error rate"
bin	-inf	0
bin	0	0
bin	1	0
scalar WLAN.ap.wlan[0].radio transmissionState:count 1824
attr interpolationmode sample-hold
attr recordingmode count
attr source transmissionStateChanged
attr title "Radio transmission state, count"
scalar WLAN.ap.wlan[0].radio receptionState:count 1812
attr interpolationmode sample-hold
attr recordingmode count
attr source receptionStateChanged
attr title "Radio reception state, count"
scalar WLAN.ap.wlan[0].radio radioMode:count 915
attr interpolationmode sample-hold
attr recordingmode count
attr source radioModeChanged
attr title "Radio mode, count"
statistic WLAN.ap.wlan[0].radio radioChannel:histogram
field count 1
field mean 0
field stddev nan
field min 0
field max 0
field sum 0
field sqrsum 0
attr interpolationmode sample-hold
attr recordingmode histogram
attr source radioChannelChanged
attr title "Radio channel"
bin	-inf	0
bin	-0.5	0
bin	-0.48	0
bin	-0.46	0
bin	-0.44	0
bin	-0.42	0
bin	-0.4	0
bin	-0.38	0
bin	-0.36	0
bin	-0.34	0
bin	-0.32	0
bin	-0.3	0
bin	-0.28	0
bin	-0.26	0
bin	-0.24	0
bin	-0.22	0
bin	-0.2	0
bin	-0.18	0
bin	-0.16	0
bin	-0.14	0
bin	-0.12	0
bin	-0.1	0
bin	-0.08	0
bin	-0.06	0
bin	-0.04	0
bin	-0.02	0
bin	0	1
bin	0.02	0
bin	0.04	0
bin	0.06	0
bin	0.08	0
bin	0.1	0
bin	0.12	0
bin	0.14	0
bin	0.16	0
bin	0.18	0
bin	0.2	0
bin	0.22	0
bin	0.24	0
bin	0.26	0
bin	0.28	0
bin	0.3	0
bin	0.32	0
bin	0.34	0
bin	0.36	0
bin	0.38	0
bin	0.4	0
bin	0.42	0
bin	0.44	0
bin	0.46	0
bin	0.48	0
bin	0.5	0
par WLAN.ap.wlan[0] typename "\"inet.linklayer.ieee80211.Ieee80211Interface\""
par WLAN.ap.wlan[0] displayStringTextFormat "\"%a (%i)\\n%m\""
par WLAN.ap.wlan[0] recordPcap false
par WLAN.ap.wlan[0] numPcapRecorders 0
par WLAN.ap.wlan[0] interfaceTableModule "\"WLAN.ap.interfaceTable\""
par WLAN.ap.wlan[0] energySourceModule "\"\""
par WLAN.ap.wlan[0] opMode "\"ac\""
attr enum a,b,g(erp),g(mixed),n(mixed-2.4Ghz),p,ac
par WLAN.ap.wlan[0] address "\"10:00:00:00:00:00\""
attr mutable ""
par WLAN.ap.wlan[0] protocol "\"ethernetmac\""
par WLAN.ap.wlan[0] bitrate 6.933e+08bps
attr unit bps
scalar WLAN.ap.wlan[0] packetDropInterfaceDown:count 0
attr interpolationmode none
attr recordingmode count
attr source packetDropReasonIsInterfaceDown(packetDropped)
attr title "packet drops: interface down, count"
scalar WLAN.ap.wlan[0] packetDropInterfaceDown:sum(packetBytes) 0
attr interpolationmode none
attr recordingmode sum(packetBytes)
attr source packetDropReasonIsInterfaceDown(packetDropped)
attr title "packet drops: interface down, sum(packetBytes)"
scalar WLAN.ap.wlan[0] packetDropNoCarrier:count 0
attr interpolationmode none
attr recordingmode count
attr source packetDropReasonIsNoCarrier(packetDropped)
attr title "packet drops: no carrier, count"
scalar WLAN.ap.wlan[0] packetDropNoCarrier:sum(packetBytes) 0
attr interpolationmode none
attr recordingmode sum(packetBytes)
attr source packetDropReasonIsNoCarrier(packetDropped)
attr title "packet drops: no carrier, sum(packetBytes)"
par WLAN.ap typename "\"inet.node.wireless.AccessPoint\""
par WLAN.ap numWlanInterfaces 1
par WLAN.ap hasStatus false
par WLAN.ap fcsMode "\"declared\""
attr enum declared,computed
par WLAN.radioMedium.propagation typename "\"inet.physicallayer.wireless.common.propagation.ConstantSpeedPropagation\""
par WLAN.radioMedium.propagation propagationSpeed 2.99792e+08mps
attr unit mps
par WLAN.radioMedium.propagation ignoreMovementDuringTransmission true
par WLAN.radioMedium.propagation ignoreMovementDuringPropagation true
par WLAN.radioMedium.propagation ignoreMovementDuringReception true
scalar WLAN.radioMedium.propagation "Arrival computation count" 9080
par WLAN.radioMedium.analogModel typename "\"inet.physicallayer.wireless.common.analogmodel.packetlevel.ScalarAnalogModel\""
par WLAN.radioMedium.analogModel ignorePartialInterference false
par WLAN.radioMedium.backgroundNoise typename "\"inet.physicallayer.wireless.common.backgroundnoise.IsotropicScalarBackgroundNoise\""
par WLAN.radioMedium.backgroundNoise power -110dBm
attr unit dBm
par WLAN.radioMedium.backgroundNoise bandwidth "nan Hz"
attr unit Hz
par WLAN.radioMedium.pathLoss typename "\"inet.physicallayer.wireless.common.pathloss.FreeSpacePathLoss\""
par WLAN.radioMedium.pathLoss alpha 2
par WLAN.radioMedium.pathLoss systemLoss 0dB
attr unit dB
par WLAN.radioMedium.mediumLimitCache typename "\"inet.physicallayer.wireless.common.medium.MediumLimitCache\""
par WLAN.radioMedium.mediumLimitCache centerFrequency 2.4e+09Hz
attr unit Hz
par WLAN.radioMedium.mediumLimitCache maxSpeed "nan mps"
attr unit mps
par WLAN.radioMedium.mediumLimitCache maxTransmissionPower "nan W"
attr unit W
par WLAN.radioMedium.mediumLimitCache minInterferencePower -110dBm
attr unit dBm
par WLAN.radioMedium.mediumLimitCache minReceptionPower -85dBm
attr unit dBm
par WLAN.radioMedium.mediumLimitCache maxAntennaGain 0dB
attr unit dB
par WLAN.radioMedium.mediumLimitCache minInterferenceTime 1e-12s
attr unit s
par WLAN.radioMedium.mediumLimitCache maxTransmissionDuration 0.01s
attr unit s
par WLAN.radioMedium.mediumLimitCache maxCommunicationRange "nan m"
attr unit m
par WLAN.radioMedium.mediumLimitCache maxInterferenceRange "nan m"
attr unit m
par WLAN.radioMedium.communicationCache typename "\"inet.physicallayer.wireless.common.communicationcache.VectorCommunicationCache\""
par WLAN.radioMedium typename "\"inet.physicallayer.wireless.ieee80211.packetlevel.Ieee80211ScalarRadioMedium\""
par WLAN.radioMedium physicalEnvironmentModule "\"physicalEnvironment\""
par WLAN.radioMedium signalAnalogRepresentation "\"scalar\""
attr enum unitDisk,scalar,dimensional
par WLAN.radioMedium rangeFilter "\"\""
par WLAN.radioMedium radioModeFilter false
par WLAN.radioMedium listeningFilter false
par WLAN.radioMedium macAddressFilter false
par WLAN.radioMedium recordTransmissionLog false
par WLAN.radioMedium recordReceptionLog false
scalar WLAN.radioMedium "transmission count" 908
scalar WLAN.radioMedium "signal send count" 9080
scalar WLAN.radioMedium "reception computation count" 9080
scalar WLAN.radioMedium "interference computation count" 28139
scalar WLAN.radioMedium "reception decision computation count" 9056
scalar WLAN.radioMedium "listening decision computation count" 10005
scalar WLAN.radioMedium "reception cache hit" 85.700787401575
attr unit %
scalar WLAN.radioMedium "interference cache hit" 66.666666666667
attr unit %
scalar WLAN.radioMedium "noise cache hit" 0
attr unit %
scalar WLAN.radioMedium "snir cache hit" 50
attr unit %
scalar WLAN.radioMedium "reception decision cache hit" 50
attr unit %
scalar WLAN.radioMedium "reception result cache hit" 0
attr unit %
par WLAN.configurator typename "\"inet.networklayer.configurator.ipv4.Ipv4NetworkConfigurator\""
par WLAN.configurator minLinkWeight 0.001
par WLAN.configurator configureIsolatedNetworksSeparatly false
par WLAN.configurator config "<config>...</config> at content:1"
par WLAN.configurator assignAddresses true
par WLAN.configurator assignUniqueAddresses true
par WLAN.configurator assignDisjunctSubnetAddresses true
par WLAN.configurator addStaticRoutes true
par WLAN.configurator addDefaultRoutes true
par WLAN.configurator addSubnetRoutes true
par WLAN.configurator addDirectRoutes true
par WLAN.configurator optimizeRoutes true
par WLAN.configurator dumpTopology false
par WLAN.configurator dumpLinks false
par WLAN.configurator dumpAddresses false
par WLAN.configurator dumpRoutes false
par WLAN.configurator dumpConfig "\"\""
par WLAN typename "\"WLAN\""
par WLAN numHosts 10

